 
    CNRS - NERC - Met OFFICE - MERCATOR-ocean - CMCC
                        NEMO team
             Ocean General Circulation Model
                 NEMO version 4.0  (2019) 
 
            ._      ._      ._      ._      ._    
        _.-._)`\_.-._)`\_.-._)`\_.-._)`\_.-._)`\_ 
 
            o         _,           _,             
             o      .' (        .-' /             
            o     _/..._'.    .'   /              
       (    o .-'`      ` '-./  _.'               
        )    ( o)           ;= <_         (       
       (      '-.,\\__ __.-;`\   '.        )      
        )  )       \) |`\ \)  '.   \      (   (   
       (  (           \_/       '-._\      )   )  
        )  ) jgs                     `    (   (   
      ^^^^^^^^^^^^^^^^^^^^^^^^^^^^^^^^^^^^^^^^^^^ 
 

AAAAAAAA

            
 domain_cfg : domain size read in domain_cfg.nc file
 ~~~~~~~~~~ 
                     iom_nf90_open ~~~ open existing file: domain_cfg.nc in READ
  mode
                    ---> domain_cfg.nc OK
 
  ===>>> : W A R N I N G
 
          ===============
 
 iom_nf90_getatt: no attribute cn_cfg found
 
 
  ===>>> : W A R N I N G
 
          ===============
 
 iom_nf90_getatt: no attribute nn_cfg found
 
                     iom_close ~~~ close file: domain_cfg.nc ok
       cn_cfg = UNKNOWN   nn_cfg =     -9999999
       jpiglo =          297
       jpjglo =          375
       jpkglo =           51
       type of global domain lateral boundary   jperio =            0
    Namelist nammpp
       jpni and jpnj will be calculated automatically
       avoid use of mpi_allgather at the north fold  ln_nnogather =  T
                     iom_nf90_open ~~~ open existing file: domain_cfg.nc in READ
  mode
                    ---> domain_cfg.nc OK
 mpp_init:
 ~~~~~~~~ 
 
    ==> you use the best mpi decomposition
 
   Number of mpi processes:    56
   Number of ocean subdomains =    56
   Number of suppressed land subdomains =    14
 
                     iom_close ~~~ close file: domain_cfg.nc ok
 
 MPI Message Passing MPI - domain lay out over processors
 
    defines mpp subdomains
       jpni =            5
       jpnj =           14
 
       sum ilci(i,1) =          305  jpiglo =          297
       sum ilcj(1,j) =          401  jpjglo =          375
 
           ****************************************************************
           *              *               *               *               *   
        14 *   61  x 28   *    61  x 28   *    61  x 28   *    61  x 28   *   
           *         51   *          52   *          53   *          54   *        
           *              *               *               *               *   
           ****************************************************************
           *              *               *               *               *   
        13 *   61  x 28   *    61  x 28   *    61  x 28   *    61  x 28   *   
           *         46   *          47   *          48   *          49   *        
           *              *               *               *               *   
           ****************************************************************
           *              *               *               *               *   
        12 *   61  x 28   *    61  x 28   *    61  x 28   *    61  x 28   *   
           *         42   *          43   *          44   *          45   *        
           *              *               *               *               *   
           ****************************************************************
           *              *               *               *               *   
        11 *   61  x 28   *    61  x 28   *    61  x 28   *    61  x 28   *   
           *         37   *          38   *          39   *          40   *        
           *              *               *               *               *   
           ****************************************************************
           *              *               *               *               *   
        10 *   61  x 28   *    61  x 28   *    61  x 28   *    61  x 28   *   
           *         32   *          33   *          34   *          35   *        
           *              *               *               *               *   
           ****************************************************************
           *              *               *               *               *   
         9 *   61  x 29   *    61  x 29   *    61  x 29   *    61  x 29   *   
           *         27   *          28   *          29   *          30   *        
           *              *               *               *               *   
           ****************************************************************
           *              *               *               *               *   
         8 *   61  x 29   *    61  x 29   *    61  x 29   *    61  x 29   *   
           *         22   *          23   *          24   *          25   *        
           *              *               *               *               *   
           ****************************************************************
           *              *               *               *               *   
         7 *   61  x 29   *    61  x 29   *    61  x 29   *    61  x 29   *   
           *         18   *          19   *          20   *          21   *        
           *              *               *               *               *   
           ****************************************************************
           *              *               *               *               *   
         6 *   61  x 29   *    61  x 29   *    61  x 29   *    61  x 29   *   
           *         14   *          15   *          16   *          17   *        
           *              *               *               *               *   
           ****************************************************************
           *              *               *               *               *   
         5 *   61  x 29   *    61  x 29   *    61  x 29   *    61  x 29   *   
           *         11   *          12   *          13   *          -1   *        
           *              *               *               *               *   
           ****************************************************************
           *              *               *               *               *   
         4 *   61  x 29   *    61  x 29   *    61  x 29   *    61  x 29   *   
           *          8   *           9   *          10   *          -1   *        
           *              *               *               *               *   
           ****************************************************************
           *              *               *               *               *   
         3 *   61  x 29   *    61  x 29   *    61  x 29   *    61  x 29   *   
           *          5   *           6   *           7   *          -1   *        
           *              *               *               *               *   
           ****************************************************************
           *              *               *               *               *   
         2 *   61  x 29   *    61  x 29   *    61  x 29   *    61  x 29   *   
           *          2   *           3   *           4   *          -1   *        
           *              *               *               *               *   
           ****************************************************************
           *              *               *               *               *   
         1 *   61  x 29   *    61  x 29   *    61  x 29   *    61  x 29   *   
           *          0   *           1   *          -1   *          -1   *        
           *              *               *               *               *   
           ****************************************************************
                   1               2               3               4             
 
           ****************
           *              *   
        14 *   61  x 28   *   
           *         55   *        
           *              *   
           ****************
           *              *   
        13 *   61  x 28   *   
           *         50   *        
           *              *   
           ****************
           *              *   
        12 *   61  x 28   *   
           *         -1   *        
           *              *   
           ****************
           *              *   
        11 *   61  x 28   *   
           *         41   *        
           *              *   
           ****************
           *              *   
        10 *   61  x 28   *   
           *         36   *        
           *              *   
           ****************
           *              *   
         9 *   61  x 29   *   
           *         31   *        
           *              *   
           ****************
           *              *   
         8 *   61  x 29   *   
           *         26   *        
           *              *   
           ****************
           *              *   
         7 *   61  x 29   *   
           *         -1   *        
           *              *   
           ****************
           *              *   
         6 *   61  x 29   *   
           *         -1   *        
           *              *   
           ****************
           *              *   
         5 *   61  x 29   *   
           *         -1   *        
           *              *   
           ****************
           *              *   
         4 *   61  x 29   *   
           *         -1   *        
           *              *   
           ****************
           *              *   
         3 *   61  x 29   *   
           *         -1   *        
           *              *   
           ****************
           *              *   
         2 *   61  x 29   *   
           *         -1   *        
           *              *   
           ****************
           *              *   
         1 *   61  x 29   *   
           *         -1   *        
           *              *   
           ****************
                   5             
 
    resulting internal parameters : 
       nproc  =            0
       nowe   =           -1    noea  =             1
       nono   =            2    noso  =            -1
       nbondi =           -1
       nbondj =           -1
       npolj  =            0
     l_Iperio =  F
     l_Jperio =  F
       nlci   =           61
       nlcj   =           29
       nimpp  =            1
       njmpp  =            1
       nreci  =            2
       nrecj  =            2
       nn_hls =            1
 
 mpp_init_ioipsl :   iloc  =           61          29
 ~~~~~~~~~~~~~~~     iabsf =            1           1
                     ihals =            0           0
                     ihale =            1           1
 
 nemo_ctl: Control prints
 ~~~~~~~~
    Namelist namctl
       run control (for debugging)     ln_ctl     =  F
        finer control over o/p sn_cfctl%l_config  =  T
                               sn_cfctl%l_runstat =  T
                               sn_cfctl%l_trcstat =  F
                               sn_cfctl%l_oceout  =  F
                               sn_cfctl%l_layout  =  F
                               sn_cfctl%l_mppout  =  F
                               sn_cfctl%l_mpptop  =  F
                               sn_cfctl%procmin   =            0
                               sn_cfctl%procmax   =      1000000
                               sn_cfctl%procincr  =            1
                               sn_cfctl%ptimincr  =           24
       level of print                  nn_print   =            0
       Start i indice for SUM control  nn_ictls   =            0
       End i indice for SUM control    nn_ictle   =            0
       Start j indice for SUM control  nn_jctls   =            0
       End j indice for SUM control    nn_jctle   =            0
       number of proc. following i     nn_isplt   =            1
       number of proc. following j     nn_jsplt   =            1
       timing by routine               ln_timing  =  T
       CFL diagnostics                 ln_diacfl  =  F
 
    Namelist namcfg
       read domain configuration file                ln_read_cfg      =  T
          filename to be read                           cn_domcfg     = 
 domain_cfg.nc
          keep closed seas in the domain (if exist)     ln_closea     =  F
       create a configuration definition file        ln_write_cfg     =  F
          filename to be written                        cn_domcfg_out = 
 domain_cfg_out
       use file attribute if exists as i/p j-start   ln_use_jattr     =  F
      file   : timing.output open ok
      unit   =           21
      status = REPLACE
      form   = FORMATTED
      access = SEQUENTIAL
 
 
 phy_cst : initialization of ocean parameters and constants
 ~~~~~~~
       mathematical constant                 rpi =    3.14159265358979     
       day                                rday   =    86400.0000000000       s
       sideral year                       rsiyea =    31558149.0101107       s
       sideral day                        rsiday =    86164.0996559118       s
       omega                              omega  =   7.292115083046062E-005  s^-
 1
 
       nb of months per year               raamo =    12.0000000000000      
  months
       nb of hours per day                 rjjhh =    24.0000000000000      
  hours
       nb of minutes per hour              rhhmm =    60.0000000000000       mn
       nb of seconds per minute            rmmss =    60.0000000000000       s
 
       earth radius                         ra   =    6371229.00000000       m
       gravity                              grav =    9.80665000000000      
  m/s^2
 
       freezing point of water              rt0  =    273.150000000000       K
 
    reference density and heat capacity now defined in eosbn2.f90
 
       thermal conductivity of pure ice          =    2.03439600000000      
  J/s/m/K
       thermal conductivity of snow is defined in a namelist 
       fresh ice specific heat                   =    2067.00000000000      
  J/kg/K
       latent heat of fusion of fresh ice / snow =    334000.000000000       J/k
 g
       latent heat of subl.  of fresh ice / snow =    2834000.00000000       J/k
 g
       density of sea ice                        =    917.000000000000      
  kg/m^3
       density of snow                           =    330.000000000000      
  kg/m^3
       density of freshwater (in melt ponds)     =    1000.00000000000      
  kg/m^3
       salinity of ice (for pisces)              =    6.00000000000000       psu
       salinity of sea (for pisces and isf)      =    34.7000000000000       psu
       latent heat of evaporation (water)        =    2500000.00000000      
  J/m^3
       von Karman constant                       =   0.400000000000000     
       Stefan-Boltzmann constant                 =   5.670000000000000E-008 
  J/s/m^2/K^4
 
       conversion: degre ==> radian          rad =   1.745329251994330E-002
 
       smallest real computer value       rsmall =   1.110223024625157E-016
 
 eos_init : equation of state
 ~~~~~~~~
    Namelist nameos : Chosen the Equation Of Seawater (EOS)
       TEOS-10 : rho=F(Conservative Temperature, Absolute  Salinity, depth)   ln
 _TEOS10 =  F
       EOS-80  : rho=F(Potential    Temperature, Practical Salinity, depth)   ln
 _EOS80  =  T
       S-EOS   : rho=F(Conservative Temperature, Absolute  Salinity, depth)   ln
 _SEOS   =  F
 
    ==>>>   use of EOS-80 equation of state (pot. temp. and pract. salinity)
 
    ==>>>   model does not use Conservative Temperature
 
    Associated physical constant
       volumic mass of reference           rau0  =    1026.00000000000      
  kg/m^3
       1. / rau0                        r1_rau0  =   9.746588693957114E-004 
  m^3/kg
       ocean specific heat                 rcp   =    3991.86795711963      
  J/Kelvin
       rau0 * rcp                       rau0_rcp =    4095656.52400474     
       1. / ( rau0 * rcp )           r1_rau0_rcp =   2.441610994816036E-007
 
 wad_init : Wetting and drying initialization through namelist read
 ~~~~~~~~
    Namelist namwad
       Logical for Iter Lim wd option   ln_wd_il     =  F
       Logical for Dir. Lim wd option   ln_wd_dl     =  F
       Depth at which wet/drying starts rn_wdmin0    =   0.300000000000000     
       Minimum wet depth on dried cells rn_wdmin1    =   0.200000000000000     
       Tolerance of min wet depth       rn_wdmin2    =   1.000000000000000E-004
       land elevation threshold         rn_wdld      =    2.50000000000000     
       Max iteration for W/D limiter    nn_wdit      =           20
       T => baroclinic u,v=0 at dry pts: ln_wd_dl_bc =  F
       use a ramp for rwd limiter:  ln_wd_dl_rwd_rmp =  F
       cut off depth sbc for wd   rn_wd_sbcdep       =    5.00000000000000     
       fraction to start sbc wgt rn_wd_sbcfra        =   0.999000000000000     
 
 dom_init : domain initialization
 ~~~~~~~~
    Domain info
       dimension of model:
              Local domain      Global domain       Data domain 
               jpi     :      61   jpiglo  :     297
               jpj     :      29   jpjglo  :     375
               jpk     :      51   jpkglo  :      51
               jpij    :    1769
       mpp local domain info (mpp):
               jpni    :            5    nn_hls  :            1
               jpnj    :           14    nn_hls  :            1
               jpnij   :           56
       lateral boundary of the Global domain : jperio  =            0
          (i.e. closed)
       Ocean model configuration used:
          cn_cfg = UNKNOWN   nn_cfg =     -9999999
 
 dom_glo : domain: global <<==>> local 
 ~~~~~~~ 
    global domain:   jpiglo =          297  jpjglo =          375  jpkglo = 
          51
    local  domain:   jpi    =           61  jpj    =           29  jpk    = 
          51
 
    conversion from local to global domain indices (and vise versa) done
 
 dom_nam : domain initialization through namelist read
 ~~~~~~~ 
    Namelist : namrun   ---   run parameters
       Assimilation cycle              nn_no           =            0
       experiment name for output      cn_exp          = amm7
       file prefix restart input       cn_ocerst_in    = restart
       restart input directory         cn_ocerst_indir = ./RESTART
       file prefix restart output      cn_ocerst_out   = restart
       restart output directory        cn_ocerst_outdir= ./RESTART
       restart logical                 ln_rstart       =  F
       start with forward time step    nn_euler        =            1
       control of time step            nn_rstctl       =            2
       number of the first time step   nn_it000        =            1
       number of the last time step    nn_itend        =         8640
       initial calendar date aammjj    nn_date0        =     20050101
       initial time of day in hhmm     nn_time0        =            0
       leap year calendar (0/1)        nn_leapy        =            1
       initial state output            nn_istate       =            0
       frequency of restart file       nn_stock        =            0
       mask land points                ln_mskland      =  F
       additional CF standard metadata ln_cfmeta       =  F
       overwrite an existing file      ln_clobber      =  T
       NetCDF chunksize (bytes)        nn_chunksz      =            0
       IS coupling at the restart step ln_iscpl        =  F
       READ restart for a single file using XIOS ln_xios_read = F
       Write restart using XIOS        nn_wxios   =            0
 
    ==>>>   Start from rest (ln_rstart=F)
            an Euler initial time step is used : nn_euler is forced to 0 
 
  ===>>> : W A R N I N G
 
          ===============
 
  nn_stock =            0  it is forced to         8640
 
 
    ==>>>   The IOIPSL calendar is "gregorian", i.e. leap year
 
    Namelist : namdom   ---   space & time domain
       linear free surface (=T)                ln_linssh   =  F
       create mesh/mask file                   ln_meshmask =  F
       treshold to open the isf cavity         rn_isfhmin  = 
   1.00000000000000       [m]
       ocean time step                         rn_rdt      = 
   300.000000000000     
       asselin time filter parameter           rn_atfp     = 
  0.100000000000000     
       online coarsening of dynamical fields   ln_crs      =  F
 
 dom_hgr : define the horizontal mesh from ithe following par_oce parameters 
 ~~~~~~~   
    namcfg : read (=T) or user defined (=F) configuration    ln_read_cfg  =  T
 
    ==>>>   read horizontal mesh in domain_cfg.nc file
 
    hgr_read : read the horizontal coordinates in mesh_mask
    ~~~~~~~~      jpiglo =          297  jpjglo =          375  jpk = 
          51
                     iom_nf90_open ~~~ open existing file: domain_cfg.nc in READ
  mode
                    ---> domain_cfg.nc OK
           read glamt (rec:      1) in domain_cfg.nc ok
           read glamu (rec:      1) in domain_cfg.nc ok
           read glamv (rec:      1) in domain_cfg.nc ok
           read glamf (rec:      1) in domain_cfg.nc ok
           read gphit (rec:      1) in domain_cfg.nc ok
           read gphiu (rec:      1) in domain_cfg.nc ok
           read gphiv (rec:      1) in domain_cfg.nc ok
           read gphif (rec:      1) in domain_cfg.nc ok
           read e1t (rec:      1) in domain_cfg.nc ok
           read e1u (rec:      1) in domain_cfg.nc ok
           read e1v (rec:      1) in domain_cfg.nc ok
           read e1f (rec:      1) in domain_cfg.nc ok
           read e2t (rec:      1) in domain_cfg.nc ok
           read e2u (rec:      1) in domain_cfg.nc ok
           read e2v (rec:      1) in domain_cfg.nc ok
           read e2f (rec:      1) in domain_cfg.nc ok
            Coriolis factor at f- and t-points read in domain_cfg.nc file
           read ff_f (rec:      1) in domain_cfg.nc ok
           read ff_t (rec:      1) in domain_cfg.nc ok
                     iom_close ~~~ close file: domain_cfg.nc ok
           Coriolis parameter have been read in domain_cfg.nc file
           u- & v-surfaces calculated as e1 e2 product
 
 dom_zgr : vertical coordinate
 ~~~~~~~
 
    ==>>>   Read vertical mesh in domain_cfg.nc file
 
    zgr_read : read the vertical coordinates in domain_cfg.nc file
    ~~~~~~~~
                     iom_nf90_open ~~~ open existing file: domain_cfg.nc in READ
  mode
                    ---> domain_cfg.nc OK
           read e3t_1d (rec:      1) in domain_cfg.nc ok
           read e3w_1d (rec:      1) in domain_cfg.nc ok
           read e3t_0 (rec:      1) in domain_cfg.nc ok
           read e3u_0 (rec:      1) in domain_cfg.nc ok
           read e3v_0 (rec:      1) in domain_cfg.nc ok
           read e3f_0 (rec:      1) in domain_cfg.nc ok
           read e3w_0 (rec:      1) in domain_cfg.nc ok
           read e3uw_0 (rec:      1) in domain_cfg.nc ok
           read e3vw_0 (rec:      1) in domain_cfg.nc ok
 
               Reference 1D z-coordinate depth and scale factors:
          level  gdept_1d  gdepw_1d  e3t_1d   e3w_1d  
             1     0.51     0.00     1.02     1.01
             2     1.56     1.02     1.08     1.05
             3     2.67     2.10     1.15     1.11
             4     3.86     3.25     1.23     1.19
             5     5.14     4.49     1.34     1.28
             6     6.54     5.83     1.47     1.40
             7     8.09     7.30     1.64     1.55
             8     9.82     8.93     1.84     1.73
             9    11.77    10.77     2.08     1.95
            10    13.99    12.85     2.37     2.22
            11    16.53    15.22     2.71     2.53
            12    19.43    17.93     3.11     2.90
            13    22.76    21.04     3.56     3.33
            14    26.56    24.60     4.05     3.80
            15    30.87    28.65     4.59     4.32
            16    35.74    33.24     5.15     4.87
            17    41.18    38.39     5.73     5.44
            18    47.21    44.12     6.33     6.03
            19    53.85    50.45     6.95     6.64
            20    61.11    57.40     7.58     7.26
            21    69.02    64.98     8.24     7.91
            22    77.61    73.23     8.95     8.59
            23    86.93    82.18     9.71     9.32
            24    97.04    91.88    10.54    10.11
            25   108.03   102.42    11.47    10.99
            26   120.00   113.89    12.51    11.97
            27   133.08   126.39    13.68    13.08
            28   147.41   140.07    15.02    14.33
            29   163.16   155.10    16.55    15.76
            30   180.55   171.64    18.28    17.39
            31   199.79   189.92    20.26    19.24
            32   221.14   210.18    22.51    21.35
            33   244.89   232.70    25.07    23.75
            34   271.36   257.76    27.95    26.47
            35   300.89   285.72    31.20    29.53
            36   333.86   316.92    34.85    32.98
            37   370.69   351.77    38.91    36.83
            38   411.79   390.68    43.41    41.11
            39   457.63   434.09    48.37    45.83
            40   508.64   482.46    53.78    51.01
            41   565.29   536.23    59.64    56.65
            42   628.03   595.87    65.93    62.73
            43   697.26   661.81    72.63    69.23
            44   773.37   734.43    79.67    76.11
            45   856.68   814.11    87.01    83.31
            46   947.45   901.12    94.57    90.77
            47  1045.85   995.69   102.27    98.41
            48  1151.99  1097.95   110.01   106.14
            49  1265.86  1207.96   117.71   113.87
            50  1387.38  1325.67   125.28   121.52
            51  1516.36  1450.95   125.28   128.99
           read top_level (rec:      1) in domain_cfg.nc ok
           read bottom_level (rec:      1) in domain_cfg.nc ok
                     iom_close ~~~ close file: domain_cfg.nc ok
 
 clo_bat : suppression of closed seas
 ~~~~~~~
                     iom_nf90_open ~~~ open existing file: domain_cfg.nc in READ
  mode
                    ---> domain_cfg.nc OK
 No closea_mask field found in domain_cfg file. No suppression of closed seas.
                     iom_close ~~~ close file: domain_cfg.nc ok
 
    Type of vertical coordinate (read in domain_cfg.nc
  file or set in userdef_nam) :
       z-coordinate - full steps      ln_zco    =  F
       z-coordinate - partial steps   ln_zps    =  F
       s- or hybrid z-s-coordinate    ln_sco    =  T
       ice shelf cavities             ln_isfcav =  F
 
     zgr_top_bot : ocean top and bottom k-index of T-, U-, V- and W-levels 
     ~~~~~~~~~~~
 
 dommsk : ocean mask 
 ~~~~~~
    Namelist namlbc
       lateral momentum boundary cond.    rn_shlat  =   0.000000000000000E+000
       consistency with analytical form   ln_vorlat =  F
 
    ==>>>   ocean lateral  free-slip
 
 usr_def_fmask : NO alteration of fmask in specific straits 
 ~~~~~~~~~~~~~
 
 dom_vvl_init : Variable volume activated
 ~~~~~~~~~~~~
 
 dom_vvl_ctl : choice/control of the variable vertical coordinate
 ~~~~~~~~~~~
    Namelist nam_vvl : chose a vertical coordinate
       zstar                      ln_vvl_zstar   =  T
       ztilde                     ln_vvl_ztilde  =  F
       layer                      ln_vvl_layer   =  F
       ztilde as zstar   ln_vvl_ztilde_as_zstar  =  F
       ztilde near the equator    ln_vvl_zstar_at_eqtor  =  F
       !
       thickness diffusion coefficient                      rn_ahe3      = 
  0.000000000000000E+000
       maximum e3t deformation fractional change            rn_zdef_max  = 
  0.900000000000000     
       z-tilde to zstar restoration timescale (days)        rn_rst_e3t   = 
   30.0000000000000     
       z-tilde cutoff frequency of low-pass filter (days)   rn_lf_cutoff = 
   5.00000000000000     
          debug prints flag                                 ln_vvl_dbg   =  T
 
       ==>>>   zstar vertical coordinate is used
 
 dom_ctl : extrema of the masked scale factors
 ~~~~~~~
              e1t maxi:    9446.21 at i =     2 j=     2
              e1t mini:    5234.36 at i =    56 j=   374
              e2t maxi:    7413.63 at i =     2 j=     2
              e2t mini:    7413.63 at i =     2 j=     2
 
 dom_init :   ==>>>   END of domain initialization
 ~~~~~~~~
 
 
 istate_init : Initialization of the dynamics and tracers
 ~~~~~~~~~~~
 
 dta_tsd_init : Temperature & Salinity data 
 ~~~~~~~~~~~~ 
    Namelist namtsd
       Initialisation of ocean T & S with T &S input data   ln_tsd_init =  F
       damping of ocean T & S toward T &S input data        ln_tsd_dmp  =  F
 
 
    ===>>   T & S data not used
  *** Info used values : 
    date ndastp                                      :     20050100
    number of elapsed days since the begining of run :   0.000000000000000E+000
    nn_time0                                         :            0
 
 =======>> 1/2 time step before the start of the run DATE Y/M/D =   2004/12/31  nsec_day:   86250  nsec_week:  431850                     nsec_month: 2678250  nsec_year:31622250
======>> time-step =       1      New day, DATE Y/M/D = 2005/01/01      nday_year = 001
         nsec_year =      150   nsec_month =     150   nsec_day =   150
   nsec_week =   432150
 
 usr_def_istate : analytical definition of initial state 
 ~~~~~~~~~~~~~~   Ocean at rest, with an horizontally uniform T and S profiles
 
 tide_init : tidal components not used (ln_tide = F)
 ~~~~~~~~~ 
 
 sbc_init : surface boundary condition setting
 ~~~~~~~~ 
    Namelist namsbc (partly overwritten with CPP key setting)
       frequency update of sbc (and ice)             nn_fsbc       = 
           1
       Type of air-sea fluxes : 
          user defined formulation                   ln_usr        =  F
          flux         formulation                   ln_flx        =  F
          bulk         formulation                   ln_blk        =  T
       Type of coupling (Ocean/Ice/Atmosphere) : 
          ocean-atmosphere coupled formulation       ln_cpl        =  F
          mixed forced-coupled     formulation       ln_mixcpl     =  F
          OASIS coupling (with atm or sas)           lk_oasis      =  F
          components of your executable              nn_components = 
           0
       Sea-ice : 
          ice management in the sbc (=0/1/2/3)       nn_ice        = 
           0
          ice embedded into ocean                    ln_ice_embd   =  F
       Misc. options of sbc : 
          Light penetration in temperature Eq.       ln_traqsr     =  T
             daily mean to diurnal cycle qsr            ln_dm2dc   =  F
          Sea Surface Restoring on SST and/or SSS    ln_ssr        =  F
          FreshWater Budget control  (=0/1/2)        nn_fwb        = 
           0
          Patm gradient added in ocean & ice Eqs.    ln_apr_dyn    =  F
          runoff / runoff mouths                     ln_rnf        =  T
          iceshelf formulation                       ln_isf        =  F
          nb of iterations if land-sea-mask applied  nn_lsm        = 
           0
          surface wave                               ln_wave       =  F
                Stokes drift corr. to vert. velocity ln_sdw        =  F
                   vertical parametrization          nn_sdrift     = 
           0
                wave modified ocean stress           ln_tauwoc     =  F
                wave modified ocean stress component ln_tauw       =  F
                Stokes coriolis term                 ln_stcor      =  F
                neutral drag coefficient (CORE,NCAR) ln_cdgw       =  F
 
    ==>>>   NEMO configured as a single executable (i.e. including both OPA and 
 Surface module)
 
    ==>>>   bulk formulation
 
 sbc_ssm_init : sea surface mean fields, nn_fsbc=1 : instantaneous values
 ~~~~~~~~~~~ 
    default initialisation of ss._m arrays
 
 sbc_blk_init : surface boundary condition -- bulk formulae
 ~~~~~~~~~~~~
    fld_fill : fill data structure with information from namelist namsbc_blk
    ~~~~~~~~
       list of files and frequency (>0: in hours ; <0 in months)
       root filename: ./INPUTS/SBC/ATM/ERA5_U10   variable name: U10
          frequency:    1.00000000000000         time interp:  T    climatology:
   F
          weights: ./INPUTS/SBC/ATM/weights_era5_gle_bicubic.nc   pairing: Uwnd
    data type: yearly     land/sea mask:./INPUTS/SBC/ATM/ERA5_LSM
       root filename: ./INPUTS/SBC/ATM/ERA5_V10   variable name: V10
          frequency:    1.00000000000000         time interp:  T    climatology:
   F
          weights: ./INPUTS/SBC/ATM/weights_era5_gle_bicubic.nc   pairing: Vwnd
    data type: yearly     land/sea mask:./INPUTS/SBC/ATM/ERA5_LSM
       root filename: ./INPUTS/SBC/ATM/ERA5_T2M   variable name: T2M
          frequency:    1.00000000000000         time interp:  T    climatology:
   F
          weights: ./INPUTS/SBC/ATM/weights_era5_gle_bicubic.nc   pairing: 
    data type: yearly     land/sea mask:./INPUTS/SBC/ATM/ERA5_LSM
       root filename: ./INPUTS/SBC/ATM/ERA5_SPH   variable name: SPH
          frequency:    1.00000000000000         time interp:  T    climatology:
   F
          weights: ./INPUTS/SBC/ATM/weights_era5_gle_bicubic.nc   pairing: 
    data type: yearly     land/sea mask:./INPUTS/SBC/ATM/ERA5_LSM
       root filename: ./INPUTS/SBC/ATM/ERA5_MSDWSWRF   variable name: MSDWSWRF
          frequency:    1.00000000000000         time interp:  T    climatology:
   F
          weights: ./INPUTS/SBC/ATM/weights_era5_gle_bicubic.nc   pairing: 
    data type: yearly     land/sea mask:./INPUTS/SBC/ATM/ERA5_LSM
       root filename: ./INPUTS/SBC/ATM/ERA5_MSDWLWRF   variable name: MSDWLWRF
          frequency:    1.00000000000000         time interp:  T    climatology:
   F
          weights: ./INPUTS/SBC/ATM/weights_era5_gle_bicubic.nc   pairing: 
    data type: yearly     land/sea mask:./INPUTS/SBC/ATM/ERA5_LSM
       root filename: ./INPUTS/SBC/ATM/ERA5_MTPR   variable name: MTPR
          frequency:    1.00000000000000         time interp:  T    climatology:
   F
          weights: ./INPUTS/SBC/ATM/weights_era5_gle_bicubic.nc   pairing: 
    data type: yearly     land/sea mask:./INPUTS/SBC/ATM/ERA5_LSM
       root filename: ./INPUTS/SBC/ATM/ERA5_MSR   variable name: MSR
          frequency:    1.00000000000000         time interp:  T    climatology:
   F
          weights: ./INPUTS/SBC/ATM/weights_era5_gle_bicubic.nc   pairing: 
    data type: yearly     land/sea mask:./INPUTS/SBC/ATM/ERA5_LSM
       root filename: ./INPUTS/SBC/ATM/ERA5_MSL   variable name: MSL
          frequency:    1.00000000000000         time interp:  T    climatology:
   F
          weights: ./INPUTS/SBC/ATM/weights_era5_gle_bicubic.nc   pairing: 
    data type: yearly     land/sea mask:./INPUTS/SBC/ATM/ERA5_LSM
       root filename: NOT USED   variable name: 
          frequency:    1.00000000000000         time interp:  T    climatology:
   F
          weights: ./INPUTS/SBC/ATM/weights_era5_gle_bicubic.nc   pairing: 
    data type: yearly     land/sea mask:./INPUTS/SBC/ATM/ERA5_LSM
 
    Namelist namsbc_blk (other than data information):
       "NCAR"      algorithm   (Large and Yeager 2008)     ln_NCAR      =  F
       "COARE 3.0" algorithm   (Fairall et al. 2003)       ln_COARE_3p0 =  F
       "COARE 3.5" algorithm   (Edson et al. 2013)         ln_COARE_3p5 =  F
       "ECMWF"     algorithm   (IFS cycle 31)              ln_ECMWF     =  T
       add High freq.contribution to the stress module     ln_taudif    =  F
       Air temperature and humidity reference height (m)   rn_zqt       = 
   2.00000000000000     
       Wind vector reference height (m)                    rn_zu        = 
   10.0000000000000     
       factor applied on precipitation (total & snow)      rn_pfac      = 
   1.00000000000000     
       factor applied on evaporation                       rn_efac      = 
   1.00000000000000     
       factor applied on ocean/ice velocity                rn_vfac      = 
  0.000000000000000E+000
          (form absolute (=0) to relative winds(=1))
       use ice-atm drag from Lupkes2012                    ln_Cd_L12    =  F
       use ice-atm drag from Lupkes2015                    ln_Cd_L15    =  F
 
    ==>>>   "ECMWF" algorithm       (IFS cycle 31)
 
 sbc_rnf_init : runoff 
 ~~~~~~~~~~~~ 
    Namelist namsbc_rnf
       specific river mouths treatment            ln_rnf_mouth =  F
       river mouth additional Kz                  rn_avt_rnf   = 
  1.000000000000000E-003
       depth of river mouth additional mixing     rn_hrnf      = 
   15.0000000000000     
       multiplicative factor for runoff           rn_rfact     = 
   1.00000000000000     
 
    ==>>>   runoffs inflow read in a file
 
    fld_fill : fill data structure with information from namelist namsbc_rnf
    ~~~~~~~~
       list of files and frequency (>0: in hours ; <0 in months)
       root filename: ./river   variable name: rorunoff
          frequency:   -1.00000000000000         time interp:  T    climatology:
   T
          weights:    pairing:    data type: yearly     land/sea mask:
 
    ==>>>   runoffs depth read in a file
                     iom_nf90_open ~~~ open existing file: ./river.nc in READ mo
 de
                    ---> ./river.nc OK
           read rodepth (rec:      1) in ./river.nc ok
                     iom_close ~~~ close file: ./river.nc ok
 
    ==>>>   No specific treatment at river mouths
 
 bdy_init : initialization of open boundaries
 ~~~~~~~~
 Number of open boundary sets :            2
  
 ------ Open boundary data set            1  ------
 Boundary definition read from file coordinates.bdy.nc
 
 Boundary conditions for barotropic solution:  
       Flather radiation condition
       boundary data taken from file
 
 Boundary conditions for baroclinic velocities:  
       Zero gradient for baroclinic velocities
       NO relaxation on baroclinic velocities
 
 Boundary conditions for temperature and salinity:  
       Flow Relaxation Scheme
       boundary data taken from file
       NO T/S relaxation
 
 
       Width of relaxation zone =           10
 
  
 ------ Open boundary data set            2  ------
 Boundary definition read from file coordinates.skagbdy.nc
 
 Boundary conditions for barotropic solution:  
       Flather radiation condition
       boundary data taken from file
 
 Boundary conditions for baroclinic velocities:  
       no open boundary condition
       NO relaxation on baroclinic velocities
 
 Boundary conditions for temperature and salinity:  
       Flow Relaxation Scheme
       boundary data taken from file
       NO T/S relaxation
 
 
       Width of relaxation zone =           10
 
 No volume correction applied at open boundaries
 
                     iom_nf90_open ~~~ open existing file: coordinates.bdy.nc in
  READ mode
                    ---> coordinates.bdy.nc OK
                     iom_close ~~~ close file: coordinates.bdy.nc ok
                     iom_nf90_open ~~~ open existing file: coordinates.skagbdy.n
 c in READ mode
                    ---> coordinates.skagbdy.nc OK
                     iom_close ~~~ close file: coordinates.skagbdy.nc ok
                     iom_nf90_open ~~~ open existing file: coordinates.bdy.nc in
  READ mode
                    ---> coordinates.bdy.nc OK
           read nbit (rec:      1) in coordinates.bdy.nc ok
           read nbjt (rec:      1) in coordinates.bdy.nc ok
           read nbrt (rec:      1) in coordinates.bdy.nc ok
 
  Maximum rimwidth in file is           10
  nn_rimwidth from namelist is           10
           read nbiu (rec:      1) in coordinates.bdy.nc ok
           read nbju (rec:      1) in coordinates.bdy.nc ok
           read nbru (rec:      1) in coordinates.bdy.nc ok
 
  Maximum rimwidth in file is           10
  nn_rimwidth from namelist is           10
           read nbiv (rec:      1) in coordinates.bdy.nc ok
           read nbjv (rec:      1) in coordinates.bdy.nc ok
           read nbrv (rec:      1) in coordinates.bdy.nc ok
 
  Maximum rimwidth in file is           10
  nn_rimwidth from namelist is           10
                     iom_close ~~~ close file: coordinates.bdy.nc ok
                     iom_nf90_open ~~~ open existing file: coordinates.skagbdy.n
 c in READ mode
                    ---> coordinates.skagbdy.nc OK
           read nbit (rec:      1) in coordinates.skagbdy.nc ok
           read nbjt (rec:      1) in coordinates.skagbdy.nc ok
           read nbrt (rec:      1) in coordinates.skagbdy.nc ok
 
  Maximum rimwidth in file is           10
  nn_rimwidth from namelist is           10
           read nbiu (rec:      1) in coordinates.skagbdy.nc ok
           read nbju (rec:      1) in coordinates.skagbdy.nc ok
           read nbru (rec:      1) in coordinates.skagbdy.nc ok
 
  Maximum rimwidth in file is           10
  nn_rimwidth from namelist is           10
           read nbiv (rec:      1) in coordinates.skagbdy.nc ok
           read nbjv (rec:      1) in coordinates.skagbdy.nc ok
           read nbrv (rec:      1) in coordinates.skagbdy.nc ok
 
  Maximum rimwidth in file is           10
  nn_rimwidth from namelist is           10
                     iom_close ~~~ close file: coordinates.skagbdy.nc ok
 
 bdy_dta_ini : initialization of data at the open boundaries
 ~~~~~~~~~~
 
 
 bdy_dta : ssh BDY number  1
 ~~~~~~~
    fld_fill : fill data structure with information from namelist block nambdy_d
 ta number  1
    ~~~~~~~~
       list of files and frequency (>0: in hours ; <0 in months)
       root filename: ./INPUTS/LBC/PHY/amm7_bt_bdyT   variable name: 
 detrended_sossheig
          frequency:    24.0000000000000         time interp:  T    climatology:
   F
          weights:    pairing:    data type: daily      land/sea mask:
 
 bdy_dta : u2d BDY number  1
 ~~~~~~~
    fld_fill : fill data structure with information from namelist block nambdy_d
 ta number  1
    ~~~~~~~~
       list of files and frequency (>0: in hours ; <0 in months)
       root filename: ./INPUTS/LBC/PHY/amm7_bt_bdyU   variable name: vobtcrtx
          frequency:    24.0000000000000         time interp:  T    climatology:
   F
          weights:    pairing:    data type: daily      land/sea mask:
 
 bdy_dta : v2d BDY number  1
 ~~~~~~~
    fld_fill : fill data structure with information from namelist block nambdy_d
 ta number  1
    ~~~~~~~~
       list of files and frequency (>0: in hours ; <0 in months)
       root filename: ./INPUTS/LBC/PHY/amm7_bt_bdyV   variable name: vobtcrty
          frequency:    24.0000000000000         time interp:  T    climatology:
   F
          weights:    pairing:    data type: daily      land/sea mask:
 
 bdy_dta : tem BDY number  1
 ~~~~~~~
    fld_fill : fill data structure with information from namelist block nambdy_d
 ta number  1
    ~~~~~~~~
       list of files and frequency (>0: in hours ; <0 in months)
       root filename: ./INPUTS/LBC/PHY/amm7_bdyT   variable name: votemper
          frequency:    24.0000000000000         time interp:  T    climatology:
   F
          weights:    pairing:    data type: daily      land/sea mask:
 
 bdy_dta : sal BDY number  1
 ~~~~~~~
    fld_fill : fill data structure with information from namelist block nambdy_d
 ta number  1
    ~~~~~~~~
       list of files and frequency (>0: in hours ; <0 in months)
       root filename: ./INPUTS/LBC/PHY/amm7_bdyT   variable name: vosaline
          frequency:    24.0000000000000         time interp:  T    climatology:
   F
          weights:    pairing:    data type: daily      land/sea mask:
 
 zdf_phy_init: ocean vertical physics
 ~~~~~~~~~~~~
    Namelist namzdf : set vertical mixing mixing parameters
       adaptive-implicit vertical advection
          Courant number targeted application   ln_zad_Aimp =  F
       vertical closure scheme
          constant vertical mixing coefficient    ln_zdfcst =  F
          Richardson number dependent closure     ln_zdfric =  F
          Turbulent Kinetic Energy closure (TKE)  ln_zdftke =  F
          Generic Length Scale closure (GLS)      ln_zdfgls =  T
          OSMOSIS-OBL closure (OSM)               ln_zdfosm =  F
       convection: 
          enhanced vertical diffusion             ln_zdfevd =  F
             applied on momentum (=1/0)             nn_evdm =            1
             vertical coefficient for evd           rn_evd  = 
   100.000000000000     
          non-penetrative convection (npc)        ln_zdfnpc =  F
             npc call  frequency                    nn_npc  =            1
             npc print frequency                    nn_npcp =          365
       double diffusive mixing                    ln_zdfddm =  F
          maximum avs for dd mixing                 rn_avts = 
  1.000000000000000E-004
          heat/salt buoyancy flux ratio             rn_hsbfr= 
   1.60000000000000     
       gravity wave-induced mixing
          surface  wave (Qiao et al 2010)         ln_zdfswm =  F
          internal wave (de Lavergne et al 2017)  ln_zdfiwm =  F
       coefficients : 
          vertical eddy viscosity                 rn_avm0   = 
  1.000000000000000E-007
          vertical eddy diffusivity               rn_avt0   = 
  0.000000000000000E+000
          constant background or profile          nn_avb    =            0
          horizontal variation for avtb           nn_havtb  =            0
 
    ==>>>   convection: no specific scheme used
 
    ==>>>   No  double diffusive mixing: avs = avt
 
 zdf_gls_init : GLS turbulent closure scheme
 ~~~~~~~~~~~~
    Namelist namzdf_gls : set gls mixing parameters
       minimum value of en                           rn_emin        = 
  1.000000000000000E-006
       minimum value of eps                          rn_epsmin      = 
  1.000000000000000E-009
       Limit dissipation rate under stable stratif.  ln_length_lim  =  T
       Galperin limit (Standard: 0.53, Holt: 0.26)   rn_clim_galp   = 
  0.267000000000000     
       TKE Surface boundary condition                nn_bc_surf     = 
           0
       TKE Bottom boundary condition                 nn_bc_bot      = 
           1
       Modify psi Schmidt number (wb case)           ln_sigpsi      =  T
       Craig and Banner coefficient                  rn_crban       = 
   100.000000000000     
       Charnock coefficient                          rn_charn       = 
   100000.000000000     
       Surface roughness formula                     nn_z0_met      = 
           1
       surface wave breaking under ice               nn_z0_ice      = 
           0
    ==>>>   no impact of ice cover on surface wave breaking
       Wave height frac. (used if nn_z0_met=2)       rn_frac_hs     = 
   1.30000000000000     
       Stability functions                           nn_stab_func   = 
           1
       Type of closure                               nn_clos        = 
           1
       Surface roughness (m)                         rn_hsro        = 
  3.000000000000000E-003
       Ice-ocean roughness (used if nn_z0_ice/=0)    rn_hsri        = 
  0.000000000000000E+000
 
    Namelist namdrg_top/_bot:   used values:
       top    ocean cavity roughness (m)             rn_z0(_top)   = 
  0.000000000000000E+000
       Bottom seafloor     roughness (m)             rn_z0(_bot)   = 
  0.000000000000000E+000
 
    ==>>   k-eps closure chosen
 
    ==>>   Stability functions from Kantha-Clayson
 
    Limit values :
       Parameter  m =    1.50000000000000     
       Parameter  n =   -1.00000000000000     
       Parameter  p =    3.00000000000000     
       rpsi1    =    1.44000000000000     
       rpsi2    =    1.92000000000000     
       rpsi3m   =  -0.520000000000000     
       rpsi3p   =    1.00000000000000     
       rsc_tke  =    1.00000000000000     
       rsc_psi  =    1.20000000000000     
       rsc_psi0 =    2.00617283950617     
       rc0      =   0.554400000000000     
 
    Shear free turbulence parameters:
       rcm_sf   =   0.988400000000000     
       ra_sf    =   -1.50000000000000     
       rl_sf    =   0.226012040091428     
 
    ==>>   start from rest, set en and hmxl_n by background values
 
 zdf_drg_init : top and/or bottom drag setting
 ~~~~~~~~~~~~
    Namelist namdrg : top/bottom friction choices
       free-slip       : Cd = 0                  ln_drg_OFF  =  F
       linear  drag    : Cd = Cd0                ln_lin      =  F
       non-linear  drag: Cd = Cd0_nl |U|         ln_non_lin  =  F
       logarithmic drag: Cd = vkarmn/log(z/z0)   ln_loglayer =  T
       implicit friction                         ln_drgimp   =  T
       implicit ice-ocean drag                   ln_drgice_imp  = F
 
    Namelist namdrg_bot : set BOTTOM friction parameters
       drag coefficient                        rn_Cd0   = 
  1.000000000000000E-003
       characteristic velocity (linear case)   rn_Uc0   = 
  0.400000000000000       m/s
       non-linear drag maximum                 rn_Cdmax = 
  0.100000000000000     
       background kinetic energy  (n-l case)   rn_ke0   = 
  0.000000000000000E+000
       bottom roughness           (n-l case)   rn_z0    = 
  3.000000000000000E-003
       set a regional boost of Cd0             ln_boost =  F
          associated boost factor              rn_boost = 
   50.0000000000000     
 
    ==>>>   quadratic BOTTOM drag (propotional to module of the velocity)
    with   a logarithmic Cd0 formulation Cd0 = ( vkarman log(z/z0) )^2 ,
           a background velocity module of (rn_ke0)^1/2 = 
  0.000000000000000E+000 m/s), 
           a logarithmic formulation: a roughness of   3.000000000000000E-003 
  meters,   and 
           a proportionality factor bounded by min/max values of 
  1.000000000000000E-003  0.100000000000000     
 
    N.B.   non-linear free surface case, Cd0 updated at each time-step 
 
 ldf_tra_init : lateral tracer diffusion
 ~~~~~~~~~~~~ 
    Namelist : namtra_ldf --- lateral mixing parameters (type, direction, coeffi
 cients)
       type :
          no explicit diffusion                   ln_traldf_OFF   =  T
          laplacian operator                      ln_traldf_lap   =  F
          bilaplacian operator                    ln_traldf_blp   =  F
       direction of action :
          iso-level                               ln_traldf_lev   =  F
          horizontal (geopotential)               ln_traldf_hor   =  F
          iso-neutral Madec operator              ln_traldf_iso   =  F
          iso-neutral triad operator              ln_traldf_triad =  F
             use the Method of Stab. Correction   ln_traldf_msc   =  F
             maximum isoppycnal slope             rn_slpmax       = 
  1.000000000000000E-002
             pure lateral mixing in ML            ln_triad_iso    =  F
             switching triad or not               rn_sw_triad     = 
   1.00000000000000     
             lateral mixing on bottom             ln_botmix_triad =  F
       coefficients :
          type of time-space variation            nn_aht_ijk_t    =           31
             lateral diffusive velocity (if cst)  rn_Ud           = 
  1.000000000000000E-002  m/s
             lateral diffusive length   (if cst)  rn_Ld           = 
   10000.0000000000       m
 
    ==>>>   NO lateral diffusion
 
    ==>>>   No diffusive operator selected. ahtu and ahtv are not allocated
 
 ldf_eiv_init : eddy induced velocity parametrization
 ~~~~~~~~~~~~ 
    Namelist namtra_eiv : 
       Eddy Induced Velocity (eiv) param.         ln_ldfeiv     =  F
       eiv streamfunction & velocity diag.        ln_ldfeiv_dia =  F
       coefficients :
          type of time-space variation            nn_aei_ijk_t  =           31
          lateral diffusive velocity (if cst)     rn_Ue         = 
  2.000000000000000E-002  m/s
          lateral diffusive length   (if cst)     rn_Le         = 
   200000.000000000       m
 
    ==>>>   eddy induced velocity param is NOT used
 
 ldf_dyn : lateral momentum physics
 ~~~~~~~
    Namelist namdyn_ldf : set lateral mixing parameters
       type :
          no explicit diffusion                ln_dynldf_OFF =  F
          laplacian operator                   ln_dynldf_lap =  F
          bilaplacian operator                 ln_dynldf_blp =  T
       direction of action :
          iso-level                            ln_dynldf_lev =  T
          horizontal (geopotential)            ln_dynldf_hor =  F
          iso-neutral                          ln_dynldf_iso =  F
       coefficients :
          type of time-space variation         nn_ahm_ijk_t  =           32
          lateral viscous velocity  (if cst)      rn_Uv      = 
  1.200000000000000E-002  m/s
          lateral viscous length    (if cst)      rn_Lv      = 
   10000.0000000000       m
          background viscosity (iso-lap case)     rn_ahm_b   = 
  0.000000000000000E+000  m2/s
       Smagorinsky settings (nn_ahm_ijk_t  = 32) :
          Smagorinsky coefficient              rn_csmc       = 
   2.00000000000000     
          factor multiplier for eddy visc.
             lower limit (default 1.0)         rn_minfac    = 
  1.000000000000000E-003
             upper limit (default 1.0)         rn_maxfac    = 
   1.00000000000000     
 
    ==>>>   iso-level bi-laplacian operator
 
    ==>>>   eddy viscosity = F( latitude, longitude, depth , time )
            proportional to the local deformation rate and gridscale (Smagorinsk
 y)
 
 tra_qsr_init : penetration of the surface solar radiation
 ~~~~~~~~~~~~
    Namelist namtra_qsr : set the parameter of penetration
       RGB (Red-Green-Blue) light penetration       ln_qsr_rgb =  T
       2 band               light penetration       ln_qsr_2bd =  F
       bio-model            light penetration       ln_qsr_bio =  F
       RGB : Chl data (=1) or cst value (=0)        nn_chldta  =            0
       RGB & 2 bands: fraction of light (rn_si1)    rn_abs     = 
  0.580000000000000     
       RGB & 2 bands: shortess depth of extinction  rn_si0     = 
  0.350000000000000     
       2 bands: longest depth of extinction         rn_si1     = 
   23.0000000000000     
 
    ==>>>   R-G-B   light penetration 
 
    trc_oce_rgb : Initialisation of the optical look-up table
    ~~~~~~~~~~~ 
       RGB longest depth of extinction    r_si2 =    61.8046971569839     
         level of light extinction =           37  ref depth = 
   390.678605487786       m
    ==>>>   Constant Chlorophyll concentration = 0.05
 
 tra_bbc : Bottom Boundary Condition (bbc), apply a Geothermal heating
 ~~~~~~~   
    Namelist nambbc : set bbc parameters
       Apply a geothermal heating at ocean bottom   ln_trabbc     =  F
       type of geothermal flux                      nn_geoflx     =            2
       Constant geothermal flux value               rn_geoflx_cst = 
  8.640000000000000E-002
 
    ==>>>   no geothermal heat flux
 
 tra_bbl_init : bottom boundary layer initialisation
 ~~~~~~~~~~~~
        Namelist nambbl : set bbl parameters
           bottom boundary layer flag          ln_trabbl  =  F
 
 tra_dmp_init : T and S newtonian relaxation
 ~~~~~~~~~~~~
    Namelist namtra_dmp : set relaxation parameters
       Apply relaxation   or not       ln_tradmp   =  F
          mixed layer damping option      nn_zdmp  =            0
          Damping file name               cn_resto = 
 resto.nc                                                                       
                                                                                
                                           
 
 
 tra_adv_init : choice/control of the tracer advection scheme
 ~~~~~~~~~~~~
    Namelist namtra_adv : chose a advection scheme for tracers
       No advection on T & S                     ln_traadv_OFF =  F
       centered scheme                           ln_traadv_cen =  F
             horizontal 2nd/4th order               nn_cen_h   =            4
             vertical   2nd/4th order               nn_cen_v   =            2
       Flux Corrected Transport scheme           ln_traadv_fct =  T
             horizontal 2nd/4th order               nn_fct_h   =            4
             vertical   2nd/4th order               nn_fct_v   =            2
       MUSCL scheme                              ln_traadv_mus =  F
             + upstream scheme near river mouths    ln_mus_ups =  F
       UBS scheme                                ln_traadv_ubs =  F
             vertical   2nd/4th order               nn_ubs_v   =            2
       QUICKEST scheme                           ln_traadv_qck =  F
 
    ==>>>   FCT      scheme is used. Horizontal order:            4 
  Vertical   order:            2
 
 tra_mle_init : mixed layer eddy (MLE) advection acting on tracers
 ~~~~~~~~~~~~~
    Namelist namtra_mle : mixed layer eddy advection applied on tracers
       use mixed layer eddy (MLE, i.e. Fox-Kemper param) (T/F)      ln_mle      
  =  F
          MLE type: =0 standard Fox-Kemper ; =1 new formulation        nn_mle   
  =            1
          magnitude of the MLE (typical value: 0.06 to 0.08)           rn_ce    
  =   6.000000000000000E-002
          scale of ML front (ML radius of deformation) (rn_mle=0)      rn_lf    
  =    5000.00000000000      m
          maximum time scale of MLE                    (rn_mle=0)      rn_time  
  =    172800.000000000      s
          reference latitude (degrees) of MLE coef.    (rn_mle=1)      rn_lat   
  =    20.0000000000000      deg
          space interp. of MLD at u-(v-)pts (0=min,1=averaged,2=max)   nn_mld_uv
  =            0
          =1 no MLE in case of convection ; =0 always MLE              nn_conv  
  =            0
          Density difference used to define ML for FK              rn_rho_c_mle 
  =   1.000000000000000E-002
 
    ==>>>   Mixed Layer Eddy parametrisation NOT used
 
 tra_ldf_init : lateral tracer diffusive operator
 ~~~~~~~~~~~~
    Namelist namtra_ldf: already read in ldftra module
       see ldf_tra_init report for lateral mixing parameters
 
    ==>>>   NO lateral diffusion
 
 dyn_adv_init : choice/control of the momentum advection scheme
 ~~~~~~~~~~~~
    Namelist namdyn_adv : chose a advection formulation & scheme for momentum
       linear dynamics : no momentum advection          ln_dynadv_OFF  =  F
       Vector form: 2nd order centered scheme           ln_dynadv_vec  =  T
          with Hollingsworth scheme (=1) or not (=0)       nn_dynkeg   = 
           0
       flux form: 2nd order centred scheme              ln_dynadv_cen2 =  F
                  3rd order UBS scheme                  ln_dynadv_ubs  =  F
 
    ==>>>   vector form : keg + zad + vor is used
               with Centered standard keg scheme
 
 dyn_vor_init : vorticity term : read namelist and control the consistency
 ~~~~~~~~~~~~
    Namelist namdyn_vor : choice of the vorticity term scheme
       enstrophy conserving scheme                    ln_dynvor_ens =  F
       f-point energy conserving scheme               ln_dynvor_ene =  F
       t-point energy conserving scheme               ln_dynvor_enT =  F
       energy conserving scheme  (een using e3t)      ln_dynvor_eeT =  F
       enstrophy and energy conserving scheme         ln_dynvor_een =  T
          e3f = averaging /4 (=0) or /sum(tmask) (=1)    nn_een_e3f = 
           1
       mixed enstrophy/energy conserving scheme       ln_dynvor_mix =  F
       masked (=T) or unmasked(=F) vorticity          ln_dynvor_msk =  F
 
       change fmask value in the angles (T)           ln_vorlat =  F
 
    ==>>>   vector form dynamics : total vorticity = Coriolis + relative vortici
 ty
 
    ==>>>   energy and enstrophy conserving scheme (EEN)
 
 dyn_ldf_init : Choice of the lateral diffusive operator on dynamics
 ~~~~~~~~~~~~
    Namelist namdyn_ldf: already read in ldfdyn module
       see ldf_dyn_init report for lateral mixing parameters
 
    ==>>>   iso-level bi-laplacian operator
 
 dyn_hpg_init : hydrostatic pressure gradient initialisation
 ~~~~~~~~~~~~
    Namelist namdyn_hpg : choice of hpg scheme
       z-coord. - full steps                             ln_hpg_zco    =  F
       z-coord. - partial steps (interpolation)          ln_hpg_zps    =  F
       s-coord. (standard jacobian formulation)          ln_hpg_sco    =  F
       s-coord. (standard jacobian formulation) for isf  ln_hpg_isf    =  F
       s-coord. (Density Jacobian: Cubic polynomial)     ln_hpg_djc    =  F
       s-coord. (Pressure Jacobian: Cubic polynomial)    ln_hpg_prj    =  T
 
    ==>>>   s-coord. (Pressure Jacobian: Cubic polynomial)
 
 
 dyn_spg_init : choice of the surface pressure gradient scheme
 ~~~~~~~~~~~~
    Namelist : namdyn_spg                    
       Explicit free surface                  ln_dynspg_exp =  F
       Free surface with time splitting       ln_dynspg_ts  =  T
 
    ==>>>   free surface with time splitting scheme
 
 dyn_spg_ts_init : split-explicit free surface
 ~~~~~~~~~~~~~~~
      ln_ts_auto=.false.: Use nn_baro in namelist   nn_baro =           30
      ln_bt_av =.true.  ==> Time averaging over nn_baro time steps is on 
      ln_bt_fw=.true.  => Forward integration of barotropic variables 
      Time filter choice, nn_bt_flt:            1
            Boxcar: width = nn_baro
  
      nn_baro =           30
      Barotropic time step [s] is :   10.0000000000000     
      Maximum Courant number is   :  0.427011396174571     
      Time diffusion parameter rn_bt_alpha:   0.000000000000000E+000
 
    ==>>>   start from rest: set barotropic values to 0
 
 trc_init : initial set up of the passive tracers
 ~~~~~~~~
 
 trc_nam_run : read the passive tracer namelists
 ~~~~~~~~~~~
    Namelist : namtrc_run
       time step freq. for passive tracer           nn_dttrc      =            1
       restart  for passive tracer                  ln_rsttr      =  F
       control of time step for passive tracer      nn_rsttr      =            0
       first time step for pass. trac.              nittrc000     =            1
       Use euler integration for TRC (y/n)          ln_top_euler  =  F
 
 trc_nam_trc : read the passive tracer namelists
 ~~~~~~~~~~~
    Namelist : namtrc
       Total number of passive tracers              jptra         =            1
       Total number of BGC tracers                  jp_bgc        =            1
       Simulating PISCES model                      ln_pisces     =  F
       Simulating FABM  model                       ln_fabm       =  T
       Simulating water mass age                    ln_age        =  F
       Simulating CFC11 passive tracer              ln_cfc11      =  F
       Simulating CFC12 passive tracer              ln_cfc12      =  F
       Simulating SF6 passive tracer                ln_sf6        =  F
       Total number of CFCs tracers                 jp_cfc        =            0
       Simulating C14   passive tracer              ln_c14        =  F
       Read inputs data from file (y/n)             ln_trcdta     =  F
       Damping of passive tracer (y/n)              ln_trcdmp     =  F
       Restoring of tracer on closed seas           ln_trcdmp_clo =  F
 
    ==>>>   All the passive tracers are initialised with constant values 
 
    ==>>>   Passive Tracer  time step    rdttrc = nn_dttrc*rdt = 
   300.000000000000     
 
 
 
  trc_ini_fabm: initialisation of FABM model
  ~~~~~~~~~~~~~~
 FABM clipping for spm_spm activated.
  FABM tracers:
    State           1 :spm_spm (spm concentration of SPM) [mg/l]
 FABM seafloor states:
    State           1 :spm_pmpool (spm mass/m**2 of PM in bottom pool) [kg/m**2]
 
 trc_init_sms : Summary for selected passive tracers
 ~~~~~~~~~~~~
     ID     NAME     INI  SBC  CBC  OBC
     1    spm_spm    F    F    F    F
 
 trc_adv_ini : choice/control of the tracer advection scheme
 ~~~~~~~~~~~
    Namelist namtrc_adv : chose a advection scheme for tracers
       No advection on passive tracers           ln_trcadv_OFF =  F
       centered scheme                           ln_trcadv_cen =  F
             horizontal 2nd/4th order               nn_cen_h   =            2
             vertical   2nd/4th order               nn_cen_v   =            2
       Flux Corrected Transport scheme           ln_trcadv_fct =  T
             horizontal 2nd/4th order               nn_fct_h   =            2
             vertical   2nd/4th order               nn_fct_v   =            2
       MUSCL scheme                              ln_trcadv_mus =  F
             + upstream scheme near river mouths    ln_mus_ups =  F
       UBS scheme                                ln_trcadv_ubs =  F
             vertical   2nd/4th order               nn_ubs_v   =            2
       QUICKEST scheme                           ln_trcadv_qck =  F
 
       ===>>   FCT      scheme is used. Horizontal order:            2 
  Vertical   order:            2
 
 trc_ldf_ini : lateral passive tracer diffusive operator
 ~~~~~~~~~~~
    Namelist namtrc_ldf : set lateral mixing parameters (type, direction, coeffi
 cients)
       no explicit diffusion                 ln_trcldf_OFF   =  T
       use active tracer operator            ln_trcldf_tra   =  F
       diffusivity coefficient :
          multiplier of TRA coef. for TRC       rn_ldf_multi = 
   1.00000000000000     
          enhanced zonal Eq. laplacian coef.    rn_fact_lap  = 
   1.00000000000000     
 
       ===>>   NO lateral diffusion
 
 trc_rad : Correct artificial negative concentrations 
 ~~~~~~~ 
    Namelist namtrc_rad : treatment of negative concentrations
       correct artificially negative concen. or not   ln_trcrad =  T
 
       ===>>   ensure the global tracer conservation
 
 trc_sink : Sedimentation of particles 
 ~~~~~~~ 
    Namelist namtrc_snk : sedimentation of particles
    Maximum number of iterations   nitermax =            2
 
 
 trc_ice_ini : Initialize sea ice tracer boundary condition
 ~~~~~~~~~~~~~
 
 trc_nam_ice : Read the namelist for trc_ice
 ~~~~~~~~~~~~~~~~~~~~~~~~~~~~~~~~~~~~~~~~~~~
  
    Namelist : namtrc_ice
       Sea ice tracers option (nn_ice_tr) :           -1
 
 trc_bc_ini : Tracers Boundary Conditions (BC)
 ~~~~~~~~~~~ 
 
   Total tracers to be initialized with SURFACE BCs data:  0
   SURFACE BC data repository : ./
 
   Total tracers to be initialized with COASTAL BCs data:  0
   COASTAL BC data repository : ./
 
   Total tracers to be initialized with OPEN BCs data:  0
   OPEN BC data repository : ../INPUTS/BGC/
 
 trc_ini_inv : initial passive tracers inventories
 ~~~~~~~~~~~
 
    ==>>>   Total number of passive tracer jptra =            1
            Total volume of ocean                =   6.805171037667148E+015
            Total inital content of all tracers 
 
      tracer nb :  1      name :   spm_spm      initial content :  0.3402585519E+17
 
 
 
 icb_nam : iceberg initialization through namberg namelist read
 ~~~~~~~~ 
 
    ==>>>   No icebergs used
 
 sto_par_init : NO use of stochastic parameterization
 ~~~~~~~~~~~~
 
 flo_stp : call floats routine 
 ~~~~~~~
 
          Namelist floats :
             Activate floats or not                   ln_floats    =  F
                number of floats                      jpnfl        = 
           1
                number of new floats                  jpnflnewflo  = 
           0
                restart                               ln_rstflo    =  F
                frequency of float output file        nn_writefl   = 
          75
                frequency of float restart file       nn_stockfl   = 
        5475
                Argo type floats                      ln_argo      =  F
                Computation of T trajectories         ln_flork4    =  F
                Use of ariane convention              ln_ariane    =  T
                ascii output (T) or netcdf output (F) ln_flo_ascii =  T
 
  ===>>> : W A R N I N G
 
          ===============
 
 end of record or file while reading namelist namptr in configuration namelist i
 ostat =    -1
 
 
 dia_ptr_init : poleward transport and msf initialization
 ~~~~~~~~~~~~
    Namelist namptr : set ptr parameters
       Poleward heat & salt transport (T) or not (F)      ln_diaptr  =  F
  
 diadct_init: compute transports through sections 
 ~~~~~~~~~~~~~~~~~~~~~
        Calculate transport thru sections: ln_diadct =  F
        Frequency of computation:          nn_dct    =           15
        Frequency of write:                nn_dctwri =           15
        Debug section number:          112
 
 dia_hsb_init : heat and salt budgets diagnostics
 ~~~~~~~~~~~~ 
    Namelist  namhsb :
       check the heat and salt budgets (T) or not (F)       ln_diahsb =  F
 
 trd_init : Momentum/Tracers trends
 ~~~~~~~~
    Namelist namtrd : set trends parameters
       global domain averaged dyn & tra trends   ln_glo_trd  =  F
       U & V trends: 3D output                   ln_dyn_trd  =  F
       U & V trends: Mixed Layer averaged        ln_dyn_mxl  =  F
       T & S trends: 3D output                   ln_tra_trd  =  F
       T & S trends: Mixed Layer averaged        ln_tra_mxl  =  F
       Kinetic   Energy trends                   ln_KE_trd   =  F
       Potential Energy trends                   ln_PE_trd   =  F
       Barotropic vorticity trends               ln_vor_trd  =  F
       frequency of trends diagnostics (glo)     nn_trd      =          365
 
 dia_obs_init : NO Observation diagnostic used
 ~~~~~~~~~~~~
 
 dia_25h_init : Output 25 hour mean diagnostics
 ~~~~~~~~~~~~
    Namelist nam_dia25h : set 25h outputs 
       Switch for 25h diagnostics (T) or not (F)  ln_dia25h  =  F
 
 dia_harm_init: Tidal harmonic analysis initialization
 ~~~~~~~~~~~~~ 
 Tidal diagnostics =  F
    First time step used for analysis:         nit000_han=            1
    Last  time step used for analysis:         nitend_han=           75
    Time step frequency for harmonic analysis: nstep_han =           15

AAAAAAAA


AAAAAAAA

 
  ===>>> : W A R N I N G
 
          ===============
 
 previous year/month/week/day file: ./INPUTS/LBC/PHY/amm7_bt_bdyT not present ->
  back to current year/month/week/day
 
                     iom_nf90_open ~~~ open existing file: ./INPUTS/LBC/PHY/amm7
 _bt_bdyT_y2005m01d01.nc in READ mode
                    ---> ./INPUTS/LBC/PHY/amm7_bt_bdyT_y2005m01d01.nc OK
           read detrended_sossheig (rec:      1) in ./INPUTS/LBC/PHY/amm7_bt_bdyT_y2005m01d01.nc ok
   fld_init : time-interpolation for detrended_sossheig read previous record =      1 at time =   -0.50 days
 
  ===>>> : W A R N I N G
 
          ===============
 
 previous year/month/week/day file: ./INPUTS/LBC/PHY/amm7_bt_bdyU not present ->
  back to current year/month/week/day
 
                     iom_nf90_open ~~~ open existing file: ./INPUTS/LBC/PHY/amm7
 _bt_bdyU_y2005m01d01.nc in READ mode
                    ---> ./INPUTS/LBC/PHY/amm7_bt_bdyU_y2005m01d01.nc OK
           read vobtcrtx (rec:      1) in ./INPUTS/LBC/PHY/amm7_bt_bdyU_y2005m01d01.nc ok
   fld_init : time-interpolation for vobtcrtx read previous record =      1 at time =   -0.50 days
 
  ===>>> : W A R N I N G
 
          ===============
 
 previous year/month/week/day file: ./INPUTS/LBC/PHY/amm7_bt_bdyV not present ->
  back to current year/month/week/day
 
                     iom_nf90_open ~~~ open existing file: ./INPUTS/LBC/PHY/amm7
 _bt_bdyV_y2005m01d01.nc in READ mode
                    ---> ./INPUTS/LBC/PHY/amm7_bt_bdyV_y2005m01d01.nc OK
           read vobtcrty (rec:      1) in ./INPUTS/LBC/PHY/amm7_bt_bdyV_y2005m01d01.nc ok
   fld_init : time-interpolation for vobtcrty read previous record =      1 at time =   -0.50 days
 
  ===>>> : W A R N I N G
 
          ===============
 
 previous year/month/week/day file: ./INPUTS/LBC/PHY/amm7_bdyT not present -> ba
 ck to current year/month/week/day
 
                     iom_nf90_open ~~~ open existing file: ./INPUTS/LBC/PHY/amm7
 _bdyT_y2005m01d01.nc in READ mode
                    ---> ./INPUTS/LBC/PHY/amm7_bdyT_y2005m01d01.nc OK
           read votemper (rec:      1) in ./INPUTS/LBC/PHY/amm7_bdyT_y2005m01d01.nc ok
   fld_init : time-interpolation for votemper read previous record =      1 at time =   -0.50 days
 
  ===>>> : W A R N I N G
 
          ===============
 
 previous year/month/week/day file: ./INPUTS/LBC/PHY/amm7_bdyT not present -> ba
 ck to current year/month/week/day
 
                     iom_nf90_open ~~~ open existing file: ./INPUTS/LBC/PHY/amm7
 _bdyT_y2005m01d01.nc in READ mode
                    ---> ./INPUTS/LBC/PHY/amm7_bdyT_y2005m01d01.nc OK
           read vosaline (rec:      1) in ./INPUTS/LBC/PHY/amm7_bdyT_y2005m01d01.nc ok
   fld_init : time-interpolation for vosaline read previous record =      1 at time =   -0.50 days
           read detrended_sossheig (rec:      1) in ./INPUTS/LBC/PHY/amm7_bt_bdyT_y2005m01d01.nc ok
           read vobtcrtx (rec:      1) in ./INPUTS/LBC/PHY/amm7_bt_bdyU_y2005m01d01.nc ok
           read vobtcrty (rec:      1) in ./INPUTS/LBC/PHY/amm7_bt_bdyV_y2005m01d01.nc ok
           read votemper (rec:      1) in ./INPUTS/LBC/PHY/amm7_bdyT_y2005m01d01.nc ok
           read vosaline (rec:      1) in ./INPUTS/LBC/PHY/amm7_bdyT_y2005m01d01.nc ok
   fld_read: var detrended_sossheig kt =        1 (   0.0052 days), Y/M/D = 2005/01/01, records b/a:   0001/  0001 (days   -0.5000/   0.5000)
       it_offset is :            1
   fld_read: var vobtcrtx kt =        1 (   0.0052 days), Y/M/D = 2005/01/01, records b/a:   0001/  0001 (days   -0.5000/   0.5000)
       it_offset is :            1
   fld_read: var vobtcrty kt =        1 (   0.0052 days), Y/M/D = 2005/01/01, records b/a:   0001/  0001 (days   -0.5000/   0.5000)
       it_offset is :            1
   fld_read: var votemper kt =        1 (   0.0052 days), Y/M/D = 2005/01/01, records b/a:   0001/  0001 (days   -0.5000/   0.5000)
       it_offset is :            1
   fld_read: var vosaline kt =        1 (   0.0052 days), Y/M/D = 2005/01/01, records b/a:   0001/  0001 (days   -0.5000/   0.5000)
       it_offset is :            1
 
  ===>>> : W A R N I N G
 
          ===============
 
 previous year/month/week/day file: ./INPUTS/SBC/ATM/ERA5_U10 not present -> bac
 k to current year/month/week/day
 
                     iom_nf90_open ~~~ open existing file: ./INPUTS/SBC/ATM/ERA5
 _U10_y2005.nc in READ mode
                    ---> ./INPUTS/SBC/ATM/ERA5_U10_y2005.nc OK
                     iom_nf90_open ~~~ open existing file: ./INPUTS/SBC/ATM/ERA5
 _U10_y2005.nc in READ mode
                    ---> ./INPUTS/SBC/ATM/ERA5_U10_y2005.nc OK
                     iom_close ~~~ close file: ./INPUTS/SBC/ATM/ERA5_U10_y2005.n
 c ok
                     iom_nf90_open ~~~ open existing file: ./INPUTS/SBC/ATM/weig
 hts_era5_gle_bicubic.nc in READ mode
                    ---> ./INPUTS/SBC/ATM/weights_era5_gle_bicubic.nc OK
           read src01 (rec:      1) in ./INPUTS/SBC/ATM/weights_era5_gle_bicubic.nc ok
           read src02 (rec:      1) in ./INPUTS/SBC/ATM/weights_era5_gle_bicubic.nc ok
           read src03 (rec:      1) in ./INPUTS/SBC/ATM/weights_era5_gle_bicubic.nc ok
           read src04 (rec:      1) in ./INPUTS/SBC/ATM/weights_era5_gle_bicubic.nc ok
           read wgt01 (rec:      1) in ./INPUTS/SBC/ATM/weights_era5_gle_bicubic.nc ok
           read wgt02 (rec:      1) in ./INPUTS/SBC/ATM/weights_era5_gle_bicubic.nc ok
           read wgt03 (rec:      1) in ./INPUTS/SBC/ATM/weights_era5_gle_bicubic.nc ok
           read wgt04 (rec:      1) in ./INPUTS/SBC/ATM/weights_era5_gle_bicubic.nc ok
           read wgt05 (rec:      1) in ./INPUTS/SBC/ATM/weights_era5_gle_bicubic.nc ok
           read wgt06 (rec:      1) in ./INPUTS/SBC/ATM/weights_era5_gle_bicubic.nc ok
           read wgt07 (rec:      1) in ./INPUTS/SBC/ATM/weights_era5_gle_bicubic.nc ok
           read wgt08 (rec:      1) in ./INPUTS/SBC/ATM/weights_era5_gle_bicubic.nc ok
           read wgt09 (rec:      1) in ./INPUTS/SBC/ATM/weights_era5_gle_bicubic.nc ok
           read wgt10 (rec:      1) in ./INPUTS/SBC/ATM/weights_era5_gle_bicubic.nc ok
           read wgt11 (rec:      1) in ./INPUTS/SBC/ATM/weights_era5_gle_bicubic.nc ok
           read wgt12 (rec:      1) in ./INPUTS/SBC/ATM/weights_era5_gle_bicubic.nc ok
           read wgt13 (rec:      1) in ./INPUTS/SBC/ATM/weights_era5_gle_bicubic.nc ok
           read wgt14 (rec:      1) in ./INPUTS/SBC/ATM/weights_era5_gle_bicubic.nc ok
           read wgt15 (rec:      1) in ./INPUTS/SBC/ATM/weights_era5_gle_bicubic.nc ok
           read wgt16 (rec:      1) in ./INPUTS/SBC/ATM/weights_era5_gle_bicubic.nc ok
                     iom_close ~~~ close file: ./INPUTS/SBC/ATM/weights_era5_gle
 _bicubic.nc ok
           read U10 (rec:      1) in ./INPUTS/SBC/ATM/ERA5_U10_y2005.nc ok
                     iom_nf90_open ~~~ open existing file: ./INPUTS/SBC/ATM/ERA5
 _LSM.nc in READ mode
                    ---> ./INPUTS/SBC/ATM/ERA5_LSM.nc OK
           read LSM (rec:      1) in ./INPUTS/SBC/ATM/ERA5_LSM.nc ok
                     iom_close ~~~ close file: ./INPUTS/SBC/ATM/ERA5_LSM.nc ok
   fld_init : time-interpolation for U10 read previous record =      1 at time =   -0.02 days
 
  ===>>> : W A R N I N G
 
          ===============
 
 previous year/month/week/day file: ./INPUTS/SBC/ATM/ERA5_V10 not present -> bac
 k to current year/month/week/day
 
                     iom_nf90_open ~~~ open existing file: ./INPUTS/SBC/ATM/ERA5
 _V10_y2005.nc in READ mode
                    ---> ./INPUTS/SBC/ATM/ERA5_V10_y2005.nc OK
           read V10 (rec:      1) in ./INPUTS/SBC/ATM/ERA5_V10_y2005.nc ok
                     iom_nf90_open ~~~ open existing file: ./INPUTS/SBC/ATM/ERA5
 _LSM.nc in READ mode
                    ---> ./INPUTS/SBC/ATM/ERA5_LSM.nc OK
           read LSM (rec:      1) in ./INPUTS/SBC/ATM/ERA5_LSM.nc ok
                     iom_close ~~~ close file: ./INPUTS/SBC/ATM/ERA5_LSM.nc ok
   fld_init : time-interpolation for V10 read previous record =      1 at time =   -0.02 days
 
  ===>>> : W A R N I N G
 
          ===============
 
 previous year/month/week/day file: ./INPUTS/SBC/ATM/ERA5_T2M not present -> bac
 k to current year/month/week/day
 
                     iom_nf90_open ~~~ open existing file: ./INPUTS/SBC/ATM/ERA5
 _T2M_y2005.nc in READ mode
                    ---> ./INPUTS/SBC/ATM/ERA5_T2M_y2005.nc OK
           read T2M (rec:      1) in ./INPUTS/SBC/ATM/ERA5_T2M_y2005.nc ok
                     iom_nf90_open ~~~ open existing file: ./INPUTS/SBC/ATM/ERA5
 _LSM.nc in READ mode
                    ---> ./INPUTS/SBC/ATM/ERA5_LSM.nc OK
           read LSM (rec:      1) in ./INPUTS/SBC/ATM/ERA5_LSM.nc ok
                     iom_close ~~~ close file: ./INPUTS/SBC/ATM/ERA5_LSM.nc ok
   fld_init : time-interpolation for T2M read previous record =      1 at time =   -0.02 days
 
  ===>>> : W A R N I N G
 
          ===============
 
 previous year/month/week/day file: ./INPUTS/SBC/ATM/ERA5_SPH not present -> bac
 k to current year/month/week/day
 
                     iom_nf90_open ~~~ open existing file: ./INPUTS/SBC/ATM/ERA5
 _SPH_y2005.nc in READ mode
                    ---> ./INPUTS/SBC/ATM/ERA5_SPH_y2005.nc OK
           read SPH (rec:      1) in ./INPUTS/SBC/ATM/ERA5_SPH_y2005.nc ok
                     iom_nf90_open ~~~ open existing file: ./INPUTS/SBC/ATM/ERA5
 _LSM.nc in READ mode
                    ---> ./INPUTS/SBC/ATM/ERA5_LSM.nc OK
           read LSM (rec:      1) in ./INPUTS/SBC/ATM/ERA5_LSM.nc ok
                     iom_close ~~~ close file: ./INPUTS/SBC/ATM/ERA5_LSM.nc ok
   fld_init : time-interpolation for SPH read previous record =      1 at time =   -0.02 days
 
  ===>>> : W A R N I N G
 
          ===============
 
 previous year/month/week/day file: ./INPUTS/SBC/ATM/ERA5_MSDWSWRF not present -
 > back to current year/month/week/day
 
                     iom_nf90_open ~~~ open existing file: ./INPUTS/SBC/ATM/ERA5
 _MSDWSWRF_y2005.nc in READ mode
                    ---> ./INPUTS/SBC/ATM/ERA5_MSDWSWRF_y2005.nc OK
[...]
 No Coastal boundary conditions to load
           read U10 (rec:    217) in ./INPUTS/SBC/ATM/ERA5_U10_y2005.nc ok
                     iom_nf90_open ~~~ open existing file: ./INPUTS/SBC/ATM/ERA5
 _LSM.nc in READ mode
                    ---> ./INPUTS/SBC/ATM/ERA5_LSM.nc OK
           read LSM (rec:      1) in ./INPUTS/SBC/ATM/ERA5_LSM.nc ok
                     iom_close ~~~ close file: ./INPUTS/SBC/ATM/ERA5_LSM.nc ok
           read V10 (rec:    217) in ./INPUTS/SBC/ATM/ERA5_V10_y2005.nc ok
                     iom_nf90_open ~~~ open existing file: ./INPUTS/SBC/ATM/ERA5
 _LSM.nc in READ mode
                    ---> ./INPUTS/SBC/ATM/ERA5_LSM.nc OK
           read LSM (rec:      1) in ./INPUTS/SBC/ATM/ERA5_LSM.nc ok
                     iom_close ~~~ close file: ./INPUTS/SBC/ATM/ERA5_LSM.nc ok
           read T2M (rec:    217) in ./INPUTS/SBC/ATM/ERA5_T2M_y2005.nc ok
                     iom_nf90_open ~~~ open existing file: ./INPUTS/SBC/ATM/ERA5
 _LSM.nc in READ mode
                    ---> ./INPUTS/SBC/ATM/ERA5_LSM.nc OK
           read LSM (rec:      1) in ./INPUTS/SBC/ATM/ERA5_LSM.nc ok
                     iom_close ~~~ close file: ./INPUTS/SBC/ATM/ERA5_LSM.nc ok
           read SPH (rec:    217) in ./INPUTS/SBC/ATM/ERA5_SPH_y2005.nc ok
                     iom_nf90_open ~~~ open existing file: ./INPUTS/SBC/ATM/ERA5
 _LSM.nc in READ mode
                    ---> ./INPUTS/SBC/ATM/ERA5_LSM.nc OK
           read LSM (rec:      1) in ./INPUTS/SBC/ATM/ERA5_LSM.nc ok
                     iom_close ~~~ close file: ./INPUTS/SBC/ATM/ERA5_LSM.nc ok
           read MSDWSWRF (rec:    217) in ./INPUTS/SBC/ATM/ERA5_MSDWSWRF_y2005.nc ok
                     iom_nf90_open ~~~ open existing file: ./INPUTS/SBC/ATM/ERA5
 _LSM.nc in READ mode
                    ---> ./INPUTS/SBC/ATM/ERA5_LSM.nc OK
           read LSM (rec:      1) in ./INPUTS/SBC/ATM/ERA5_LSM.nc ok
                     iom_close ~~~ close file: ./INPUTS/SBC/ATM/ERA5_LSM.nc ok
           read MSDWLWRF (rec:    217) in ./INPUTS/SBC/ATM/ERA5_MSDWLWRF_y2005.nc ok
                     iom_nf90_open ~~~ open existing file: ./INPUTS/SBC/ATM/ERA5
 _LSM.nc in READ mode
                    ---> ./INPUTS/SBC/ATM/ERA5_LSM.nc OK
           read LSM (rec:      1) in ./INPUTS/SBC/ATM/ERA5_LSM.nc ok
                     iom_close ~~~ close file: ./INPUTS/SBC/ATM/ERA5_LSM.nc ok
           read MTPR (rec:    217) in ./INPUTS/SBC/ATM/ERA5_MTPR_y2005.nc ok
                     iom_nf90_open ~~~ open existing file: ./INPUTS/SBC/ATM/ERA5
 _LSM.nc in READ mode
                    ---> ./INPUTS/SBC/ATM/ERA5_LSM.nc OK
           read LSM (rec:      1) in ./INPUTS/SBC/ATM/ERA5_LSM.nc ok
                     iom_close ~~~ close file: ./INPUTS/SBC/ATM/ERA5_LSM.nc ok
           read MSR (rec:    217) in ./INPUTS/SBC/ATM/ERA5_MSR_y2005.nc ok
                     iom_nf90_open ~~~ open existing file: ./INPUTS/SBC/ATM/ERA5
 _LSM.nc in READ mode
                    ---> ./INPUTS/SBC/ATM/ERA5_LSM.nc OK
           read LSM (rec:      1) in ./INPUTS/SBC/ATM/ERA5_LSM.nc ok
                     iom_close ~~~ close file: ./INPUTS/SBC/ATM/ERA5_LSM.nc ok
           read MSL (rec:    217) in ./INPUTS/SBC/ATM/ERA5_MSL_y2005.nc ok
                     iom_nf90_open ~~~ open existing file: ./INPUTS/SBC/ATM/ERA5
 _LSM.nc in READ mode
                    ---> ./INPUTS/SBC/ATM/ERA5_LSM.nc OK
           read LSM (rec:      1) in ./INPUTS/SBC/ATM/ERA5_LSM.nc ok
                     iom_close ~~~ close file: ./INPUTS/SBC/ATM/ERA5_LSM.nc ok
 
  trc_sms_fabm_check_mass:  Total conserved quantities
  ~~~~~~~~~~~~~~
 
 trc_sms_fabm:  FABM model, iteration 2587 2005-01-09 84750 secs
  ~~~~~~~~~~~~~~
 No Open boundary conditions to load
 No Surface boundary conditions to load
 No Coastal boundary conditions to load
 
  trc_sms_fabm_check_mass:  Total conserved quantities
  ~~~~~~~~~~~~~~
 
 trc_sms_fabm:  FABM model, iteration 2588 2005-01-09 85050 secs
  ~~~~~~~~~~~~~~
 No Open boundary conditions to load
 No Surface boundary conditions to load
 No Coastal boundary conditions to load
 
  trc_sms_fabm_check_mass:  Total conserved quantities
  ~~~~~~~~~~~~~~
 
 trc_sms_fabm:  FABM model, iteration 2589 2005-01-09 85350 secs
  ~~~~~~~~~~~~~~
 No Open boundary conditions to load
 No Surface boundary conditions to load
 No Coastal boundary conditions to load
 
  trc_sms_fabm_check_mass:  Total conserved quantities
  ~~~~~~~~~~~~~~
 
 trc_sms_fabm:  FABM model, iteration 2590 2005-01-09 85650 secs
  ~~~~~~~~~~~~~~
 No Open boundary conditions to load
 No Surface boundary conditions to load
 No Coastal boundary conditions to load
 
  trc_sms_fabm_check_mass:  Total conserved quantities
  ~~~~~~~~~~~~~~
 
 trc_sms_fabm:  FABM model, iteration 2591 2005-01-09 85950 secs
  ~~~~~~~~~~~~~~
 No Open boundary conditions to load
 No Surface boundary conditions to load
 No Coastal boundary conditions to load
 
  trc_sms_fabm_check_mass:  Total conserved quantities
  ~~~~~~~~~~~~~~
 
 trc_sms_fabm:  FABM model, iteration 2592 2005-01-09 86250 secs
  ~~~~~~~~~~~~~~
 No Open boundary conditions to load
 No Surface boundary conditions to load
 No Coastal boundary conditions to load
======>> time-step =    2593      New day, DATE Y/M/D = 2005/01/10      nday_year = 010
         nsec_year =   777750   nsec_month =  777750   nsec_day =   150
   nsec_week =   604950
 
  trc_sms_fabm_check_mass:  Total conserved quantities
  ~~~~~~~~~~~~~~
 
 trc_sms_fabm:  FABM model, iteration 2593 2005-01-10   150 secs
  ~~~~~~~~~~~~~~
 No Open boundary conditions to load
 No Surface boundary conditions to load
 No Coastal boundary conditions to load
 
  trc_sms_fabm_check_mass:  Total conserved quantities
  ~~~~~~~~~~~~~~
 
 trc_sms_fabm:  FABM model, iteration 2594 2005-01-10   450 secs
  ~~~~~~~~~~~~~~
 No Open boundary conditions to load
 No Surface boundary conditions to load
 No Coastal boundary conditions to load
 
  trc_sms_fabm_check_mass:  Total conserved quantities
  ~~~~~~~~~~~~~~
 
 trc_sms_fabm:  FABM model, iteration 2595 2005-01-10   750 secs
  ~~~~~~~~~~~~~~
 No Open boundary conditions to load
 No Surface boundary conditions to load
 No Coastal boundary conditions to load
 
  trc_sms_fabm_check_mass:  Total conserved quantities
  ~~~~~~~~~~~~~~
 
 trc_sms_fabm:  FABM model, iteration 2596 2005-01-10  1050 secs
  ~~~~~~~~~~~~~~
 No Open boundary conditions to load
 No Surface boundary conditions to load
 No Coastal boundary conditions to load
 
  trc_sms_fabm_check_mass:  Total conserved quantities
  ~~~~~~~~~~~~~~
 
 trc_sms_fabm:  FABM model, iteration 2597 2005-01-10  1350 secs
  ~~~~~~~~~~~~~~
 No Open boundary conditions to load
 No Surface boundary conditions to load
 No Coastal boundary conditions to load
 
  trc_sms_fabm_check_mass:  Total conserved quantities
  ~~~~~~~~~~~~~~
 
 trc_sms_fabm:  FABM model, iteration 2598 2005-01-10  1650 secs
  ~~~~~~~~~~~~~~
 No Open boundary conditions to load
 No Surface boundary conditions to load
 No Coastal boundary conditions to load
           read U10 (rec:    218) in ./INPUTS/SBC/ATM/ERA5_U10_y2005.nc ok
                     iom_nf90_open ~~~ open existing file: ./INPUTS/SBC/ATM/ERA5
 _LSM.nc in READ mode
                    ---> ./INPUTS/SBC/ATM/ERA5_LSM.nc OK
           read LSM (rec:      1) in ./INPUTS/SBC/ATM/ERA5_LSM.nc ok
                     iom_close ~~~ close file: ./INPUTS/SBC/ATM/ERA5_LSM.nc ok
           read V10 (rec:    218) in ./INPUTS/SBC/ATM/ERA5_V10_y2005.nc ok
                     iom_nf90_open ~~~ open existing file: ./INPUTS/SBC/ATM/ERA5
 _LSM.nc in READ mode
                    ---> ./INPUTS/SBC/ATM/ERA5_LSM.nc OK
           read LSM (rec:      1) in ./INPUTS/SBC/ATM/ERA5_LSM.nc ok
                     iom_close ~~~ close file: ./INPUTS/SBC/ATM/ERA5_LSM.nc ok
           read T2M (rec:    218) in ./INPUTS/SBC/ATM/ERA5_T2M_y2005.nc ok
                     iom_nf90_open ~~~ open existing file: ./INPUTS/SBC/ATM/ERA5
 _LSM.nc in READ mode
                    ---> ./INPUTS/SBC/ATM/ERA5_LSM.nc OK
           read LSM (rec:      1) in ./INPUTS/SBC/ATM/ERA5_LSM.nc ok
                     iom_close ~~~ close file: ./INPUTS/SBC/ATM/ERA5_LSM.nc ok
           read SPH (rec:    218) in ./INPUTS/SBC/ATM/ERA5_SPH_y2005.nc ok
                     iom_nf90_open ~~~ open existing file: ./INPUTS/SBC/ATM/ERA5
 _LSM.nc in READ mode
                    ---> ./INPUTS/SBC/ATM/ERA5_LSM.nc OK
           read LSM (rec:      1) in ./INPUTS/SBC/ATM/ERA5_LSM.nc ok
                     iom_close ~~~ close file: ./INPUTS/SBC/ATM/ERA5_LSM.nc ok
           read MSDWSWRF (rec:    218) in ./INPUTS/SBC/ATM/ERA5_MSDWSWRF_y2005.nc ok
                     iom_nf90_open ~~~ open existing file: ./INPUTS/SBC/ATM/ERA5
 _LSM.nc in READ mode
                    ---> ./INPUTS/SBC/ATM/ERA5_LSM.nc OK
           read LSM (rec:      1) in ./INPUTS/SBC/ATM/ERA5_LSM.nc ok
                     iom_close ~~~ close file: ./INPUTS/SBC/ATM/ERA5_LSM.nc ok
           read MSDWLWRF (rec:    218) in ./INPUTS/SBC/ATM/ERA5_MSDWLWRF_y2005.nc ok
                     iom_nf90_open ~~~ open existing file: ./INPUTS/SBC/ATM/ERA5
 _LSM.nc in READ mode
                    ---> ./INPUTS/SBC/ATM/ERA5_LSM.nc OK
           read LSM (rec:      1) in ./INPUTS/SBC/ATM/ERA5_LSM.nc ok
                     iom_close ~~~ close file: ./INPUTS/SBC/ATM/ERA5_LSM.nc ok
           read MTPR (rec:    218) in ./INPUTS/SBC/ATM/ERA5_MTPR_y2005.nc ok
                     iom_nf90_open ~~~ open existing file: ./INPUTS/SBC/ATM/ERA5
 _LSM.nc in READ mode
                    ---> ./INPUTS/SBC/ATM/ERA5_LSM.nc OK
           read LSM (rec:      1) in ./INPUTS/SBC/ATM/ERA5_LSM.nc ok
                     iom_close ~~~ close file: ./INPUTS/SBC/ATM/ERA5_LSM.nc ok
           read MSR (rec:    218) in ./INPUTS/SBC/ATM/ERA5_MSR_y2005.nc ok
                     iom_nf90_open ~~~ open existing file: ./INPUTS/SBC/ATM/ERA5
 _LSM.nc in READ mode
                    ---> ./INPUTS/SBC/ATM/ERA5_LSM.nc OK
           read LSM (rec:      1) in ./INPUTS/SBC/ATM/ERA5_LSM.nc ok
                     iom_close ~~~ close file: ./INPUTS/SBC/ATM/ERA5_LSM.nc ok
           read MSL (rec:    218) in ./INPUTS/SBC/ATM/ERA5_MSL_y2005.nc ok
                     iom_nf90_open ~~~ open existing file: ./INPUTS/SBC/ATM/ERA5
 _LSM.nc in READ mode
                    ---> ./INPUTS/SBC/ATM/ERA5_LSM.nc OK
           read LSM (rec:      1) in ./INPUTS/SBC/ATM/ERA5_LSM.nc ok
                     iom_close ~~~ close file: ./INPUTS/SBC/ATM/ERA5_LSM.nc ok
 
  trc_sms_fabm_check_mass:  Total conserved quantities
  ~~~~~~~~~~~~~~
 
 trc_sms_fabm:  FABM model, iteration 2599 2005-01-10  1950 secs
  ~~~~~~~~~~~~~~
 No Open boundary conditions to load
 No Surface boundary conditions to load
 No Coastal boundary conditions to load
 
  trc_sms_fabm_check_mass:  Total conserved quantities
  ~~~~~~~~~~~~~~
 
 trc_sms_fabm:  FABM model, iteration 2600 2005-01-10  2250 secs
  ~~~~~~~~~~~~~~
 No Open boundary conditions to load
 No Surface boundary conditions to load
 No Coastal boundary conditions to load
 
  trc_sms_fabm_check_mass:  Total conserved quantities
  ~~~~~~~~~~~~~~
 
 trc_sms_fabm:  FABM model, iteration 2601 2005-01-10  2550 secs
  ~~~~~~~~~~~~~~
 No Open boundary conditions to load
 No Surface boundary conditions to load
 No Coastal boundary conditions to load
 
  trc_sms_fabm_check_mass:  Total conserved quantities
  ~~~~~~~~~~~~~~
 
 trc_sms_fabm:  FABM model, iteration 2602 2005-01-10  2850 secs
  ~~~~~~~~~~~~~~
 No Open boundary conditions to load
 No Surface boundary conditions to load
 No Coastal boundary conditions to load
 
  trc_sms_fabm_check_mass:  Total conserved quantities
  ~~~~~~~~~~~~~~
 
 trc_sms_fabm:  FABM model, iteration 2603 2005-01-10  3150 secs
  ~~~~~~~~~~~~~~
 No Open boundary conditions to load
 No Surface boundary conditions to load
 No Coastal boundary conditions to load
 
  trc_sms_fabm_check_mass:  Total conserved quantities
  ~~~~~~~~~~~~~~
 
 trc_sms_fabm:  FABM model, iteration 2604 2005-01-10  3450 secs
  ~~~~~~~~~~~~~~
 No Open boundary conditions to load
 No Surface boundary conditions to load
 No Coastal boundary conditions to load
 
  trc_sms_fabm_check_mass:  Total conserved quantities
  ~~~~~~~~~~~~~~
 
 trc_sms_fabm:  FABM model, iteration 2605 2005-01-10  3750 secs
  ~~~~~~~~~~~~~~
 No Open boundary conditions to load
 No Surface boundary conditions to load
 No Coastal boundary conditions to load
 
  trc_sms_fabm_check_mass:  Total conserved quantities
  ~~~~~~~~~~~~~~
 
 trc_sms_fabm:  FABM model, iteration 2606 2005-01-10  4050 secs
  ~~~~~~~~~~~~~~
 No Open boundary conditions to load
 No Surface boundary conditions to load
 No Coastal boundary conditions to load
 
  trc_sms_fabm_check_mass:  Total conserved quantities
  ~~~~~~~~~~~~~~
 
 trc_sms_fabm:  FABM model, iteration 2607 2005-01-10  4350 secs
  ~~~~~~~~~~~~~~
 No Open boundary conditions to load
 No Surface boundary conditions to load
 No Coastal boundary conditions to load
 
  trc_sms_fabm_check_mass:  Total conserved quantities
  ~~~~~~~~~~~~~~
 
 trc_sms_fabm:  FABM model, iteration 2608 2005-01-10  4650 secs
  ~~~~~~~~~~~~~~
 No Open boundary conditions to load
 No Surface boundary conditions to load
 No Coastal boundary conditions to load
 
  trc_sms_fabm_check_mass:  Total conserved quantities
  ~~~~~~~~~~~~~~
 
 trc_sms_fabm:  FABM model, iteration 2609 2005-01-10  4950 secs
  ~~~~~~~~~~~~~~
 No Open boundary conditions to load
 No Surface boundary conditions to load
 No Coastal boundary conditions to load
 
  trc_sms_fabm_check_mass:  Total conserved quantities
  ~~~~~~~~~~~~~~
 
 trc_sms_fabm:  FABM model, iteration 2610 2005-01-10  5250 secs
  ~~~~~~~~~~~~~~
 No Open boundary conditions to load
 No Surface boundary conditions to load
 No Coastal boundary conditions to load
           read U10 (rec:    219) in ./INPUTS/SBC/ATM/ERA5_U10_y2005.nc ok
                     iom_nf90_open ~~~ open existing file: ./INPUTS/SBC/ATM/ERA5
 _LSM.nc in READ mode
                    ---> ./INPUTS/SBC/ATM/ERA5_LSM.nc OK
           read LSM (rec:      1) in ./INPUTS/SBC/ATM/ERA5_LSM.nc ok
                     iom_close ~~~ close file: ./INPUTS/SBC/ATM/ERA5_LSM.nc ok
           read V10 (rec:    219) in ./INPUTS/SBC/ATM/ERA5_V10_y2005.nc ok
                     iom_nf90_open ~~~ open existing file: ./INPUTS/SBC/ATM/ERA5
 _LSM.nc in READ mode
                    ---> ./INPUTS/SBC/ATM/ERA5_LSM.nc OK
           read LSM (rec:      1) in ./INPUTS/SBC/ATM/ERA5_LSM.nc ok
                     iom_close ~~~ close file: ./INPUTS/SBC/ATM/ERA5_LSM.nc ok
           read T2M (rec:    219) in ./INPUTS/SBC/ATM/ERA5_T2M_y2005.nc ok
                     iom_nf90_open ~~~ open existing file: ./INPUTS/SBC/ATM/ERA5
 _LSM.nc in READ mode
                    ---> ./INPUTS/SBC/ATM/ERA5_LSM.nc OK
           read LSM (rec:      1) in ./INPUTS/SBC/ATM/ERA5_LSM.nc ok
                     iom_close ~~~ close file: ./INPUTS/SBC/ATM/ERA5_LSM.nc ok
           read SPH (rec:    219) in ./INPUTS/SBC/ATM/ERA5_SPH_y2005.nc ok
                     iom_nf90_open ~~~ open existing file: ./INPUTS/SBC/ATM/ERA5
 _LSM.nc in READ mode
                    ---> ./INPUTS/SBC/ATM/ERA5_LSM.nc OK
           read LSM (rec:      1) in ./INPUTS/SBC/ATM/ERA5_LSM.nc ok
                     iom_close ~~~ close file: ./INPUTS/SBC/ATM/ERA5_LSM.nc ok
           read MSDWSWRF (rec:    219) in ./INPUTS/SBC/ATM/ERA5_MSDWSWRF_y2005.nc ok
                     iom_nf90_open ~~~ open existing file: ./INPUTS/SBC/ATM/ERA5
 _LSM.nc in READ mode
                    ---> ./INPUTS/SBC/ATM/ERA5_LSM.nc OK
           read LSM (rec:      1) in ./INPUTS/SBC/ATM/ERA5_LSM.nc ok
                     iom_close ~~~ close file: ./INPUTS/SBC/ATM/ERA5_LSM.nc ok
           read MSDWLWRF (rec:    219) in ./INPUTS/SBC/ATM/ERA5_MSDWLWRF_y2005.nc ok
                     iom_nf90_open ~~~ open existing file: ./INPUTS/SBC/ATM/ERA5
 _LSM.nc in READ mode
                    ---> ./INPUTS/SBC/ATM/ERA5_LSM.nc OK
           read LSM (rec:      1) in ./INPUTS/SBC/ATM/ERA5_LSM.nc ok
                     iom_close ~~~ close file: ./INPUTS/SBC/ATM/ERA5_LSM.nc ok
           read MTPR (rec:    219) in ./INPUTS/SBC/ATM/ERA5_MTPR_y2005.nc ok
                     iom_nf90_open ~~~ open existing file: ./INPUTS/SBC/ATM/ERA5
 _LSM.nc in READ mode
                    ---> ./INPUTS/SBC/ATM/ERA5_LSM.nc OK
           read LSM (rec:      1) in ./INPUTS/SBC/ATM/ERA5_LSM.nc ok
                     iom_close ~~~ close file: ./INPUTS/SBC/ATM/ERA5_LSM.nc ok
           read MSR (rec:    219) in ./INPUTS/SBC/ATM/ERA5_MSR_y2005.nc ok
                     iom_nf90_open ~~~ open existing file: ./INPUTS/SBC/ATM/ERA5
 _LSM.nc in READ mode
                    ---> ./INPUTS/SBC/ATM/ERA5_LSM.nc OK
           read LSM (rec:      1) in ./INPUTS/SBC/ATM/ERA5_LSM.nc ok
                     iom_close ~~~ close file: ./INPUTS/SBC/ATM/ERA5_LSM.nc ok
           read MSL (rec:    219) in ./INPUTS/SBC/ATM/ERA5_MSL_y2005.nc ok
                     iom_nf90_open ~~~ open existing file: ./INPUTS/SBC/ATM/ERA5
 _LSM.nc in READ mode
                    ---> ./INPUTS/SBC/ATM/ERA5_LSM.nc OK
           read LSM (rec:      1) in ./INPUTS/SBC/ATM/ERA5_LSM.nc ok
                     iom_close ~~~ close file: ./INPUTS/SBC/ATM/ERA5_LSM.nc ok
 
  trc_sms_fabm_check_mass:  Total conserved quantities
  ~~~~~~~~~~~~~~
 
 trc_sms_fabm:  FABM model, iteration 2611 2005-01-10  5550 secs
  ~~~~~~~~~~~~~~
 No Open boundary conditions to load
 No Surface boundary conditions to load
 No Coastal boundary conditions to load
 
  trc_sms_fabm_check_mass:  Total conserved quantities
  ~~~~~~~~~~~~~~
 
 trc_sms_fabm:  FABM model, iteration 2612 2005-01-10  5850 secs
  ~~~~~~~~~~~~~~
 No Open boundary conditions to load
 No Surface boundary conditions to load
 No Coastal boundary conditions to load
 
  trc_sms_fabm_check_mass:  Total conserved quantities
  ~~~~~~~~~~~~~~
 
 trc_sms_fabm:  FABM model, iteration 2613 2005-01-10  6150 secs
  ~~~~~~~~~~~~~~
 No Open boundary conditions to load
 No Surface boundary conditions to load
 No Coastal boundary conditions to load
 
  trc_sms_fabm_check_mass:  Total conserved quantities
  ~~~~~~~~~~~~~~
 
 trc_sms_fabm:  FABM model, iteration 2614 2005-01-10  6450 secs
  ~~~~~~~~~~~~~~
 No Open boundary conditions to load
 No Surface boundary conditions to load
 No Coastal boundary conditions to load
 
  trc_sms_fabm_check_mass:  Total conserved quantities
  ~~~~~~~~~~~~~~
 
 trc_sms_fabm:  FABM model, iteration 2615 2005-01-10  6750 secs
  ~~~~~~~~~~~~~~
 No Open boundary conditions to load
 No Surface boundary conditions to load
 No Coastal boundary conditions to load
 
  trc_sms_fabm_check_mass:  Total conserved quantities
  ~~~~~~~~~~~~~~
 
 trc_sms_fabm:  FABM model, iteration 2616 2005-01-10  7050 secs
  ~~~~~~~~~~~~~~
 No Open boundary conditions to load
 No Surface boundary conditions to load
 No Coastal boundary conditions to load
 
  trc_sms_fabm_check_mass:  Total conserved quantities
  ~~~~~~~~~~~~~~
 
 trc_sms_fabm:  FABM model, iteration 2617 2005-01-10  7350 secs
  ~~~~~~~~~~~~~~
 No Open boundary conditions to load
 No Surface boundary conditions to load
 No Coastal boundary conditions to load
 
  trc_sms_fabm_check_mass:  Total conserved quantities
  ~~~~~~~~~~~~~~
 
 trc_sms_fabm:  FABM model, iteration 2618 2005-01-10  7650 secs
  ~~~~~~~~~~~~~~
 No Open boundary conditions to load
 No Surface boundary conditions to load
 No Coastal boundary conditions to load
 
  trc_sms_fabm_check_mass:  Total conserved quantities
  ~~~~~~~~~~~~~~
 
 trc_sms_fabm:  FABM model, iteration 2619 2005-01-10  7950 secs
  ~~~~~~~~~~~~~~
 No Open boundary conditions to load
 No Surface boundary conditions to load
 No Coastal boundary conditions to load
 
  trc_sms_fabm_check_mass:  Total conserved quantities
  ~~~~~~~~~~~~~~
 
 trc_sms_fabm:  FABM model, iteration 2620 2005-01-10  8250 secs
  ~~~~~~~~~~~~~~
 No Open boundary conditions to load
 No Surface boundary conditions to load
 No Coastal boundary conditions to load
